data/pglib_opf_case4917_goc_storage.m
%%%%%%%%%%%%%%%%%%%%%%%%%%%%%%%%%%%%%%%%%%%%%%%%%%%%%%%%%%%%%%%%%%%%%%%%%%%
%%%%                                                                  %%%%%
%%%%    IEEE PES Power Grid Library - Optimal Power Flow - v23.07     %%%%%
%%%%          (https://github.com/power-grid-lib/pglib-opf)           %%%%%
%%%%               Benchmark Group - Typical Operations               %%%%%
%%%%                         23 - July - 2023                         %%%%%
%%%%                                                                  %%%%%
%%%%%%%%%%%%%%%%%%%%%%%%%%%%%%%%%%%%%%%%%%%%%%%%%%%%%%%%%%%%%%%%%%%%%%%%%%%
%
%   A 4,917 bus model created by the Sustainable Data Evolution Technology (SDET)
%   tool for use in ARPA-e's Grid Optimization Competition, Challenge 1.
%
%   https://gocompetition.energy.gov/challenges/22/datasets
%
%   Developed by Renke Huang and Ahmad Tbaileh,
%   Pacific Northwest National Laboratory, U.S.A.
%   Provided in the public domain. February, 2020
%
% Modified to have additional storage capacity and increased gencost
function mpc = pglib_opf_case4917_goc
mpc.version = '2';
mpc.baseMVA = 100.0;

%% bus data
%	bus_i	type	Pd	Qd	Gs	Bs	area	Vm	Va	baseKV	zone	Vmax	Vmin
mpc.bus = [
	1	 1	 8.252	 -0.234	 0.0	 0.0	 1	    0.99750	    0.00000	 13.0	 1	    1.05000	    0.94500;
	2	 1	 0.0	 0.0	 0.0	 0.0	 1	    0.99750	    0.00000	 13.0	 1	    1.05000	    0.94500;
	3	 1	 0.178	 0.504	 0.0	 0.0	 1	    0.99750	    0.00000	 69.0	 1	    1.05000	    0.94500;
	4	 1	 7.958	 -0.347	 0.0	 0.0	 1	    0.99750	    0.00000	 13.0	 1	    1.05000	    0.94500;
	5	 1	 0.0	 0.0	 0.0	 0.0	 1	    0.99750	    0.00000	 13.0	 1	    1.05000	    0.94500;
	6	 2	 2.551	 3.396	 0.0	 0.0	 1	    0.99750	    0.00000	 69.0	 1	    1.05000	    0.94500;
	7	 1	 6.084	 0.417	 0.0	 0.0	 1	    0.99750	    0.00000	 13.0	 1	    1.05000	    0.94500;
	8	 1	 2.739	 0.495	 0.0	 0.0	 1	    0.99750	    0.00000	 13.0	 1	    1.05000	    0.94500;
	9	 2	 0.0	 0.0	 0.0	 0.0	 1	    0.99750	    0.00000	 69.0	 1	    1.05000	    0.94500;
	10	 1	 1.9	 1.259	 0.0	 0.0	 1	    0.99750	    0.00000	 69.0	 1	    1.05000	    0.94500;
	11	 1	 3.667	 0.729	 0.0	 0.0	 1	    0.99750	    0.00000	 69.0	 1	    1.05000	    0.94500;
	12	 1	 0.0	 0.0	 0.0	 0.0	 1	    0.99750	    0.00000	 69.0	 1	    1.05000	    0.94500;
	13	 1	 0.0	 0.0	 0.0	 0.0	 1	    0.99750	    0.00000	 69.0	 1	    1.05000	    0.94500;
	14	 1	 0.0	 0.0	 0.0	 0.0	 1	    0.99750	    0.00000	 69.0	 1	    1.05000	    0.94500;
	15	 1	 0.0	 0.0	 0.0	 0.0	 1	    0.99750	    0.00000	 69.0	 1	    1.05000	    0.94500;
	16	 2	 0.0	 0.0	 0.0	 0.0	 1	    0.99750	    0.00000	 69.0	 1	    1.05000	    0.94500;
	17	 1	 12.391	 -1.433	 0.0	 0.0	 1	    0.99750	    0.00000	 69.0	 1	    1.05000	    0.94500;
	18	 1	 0.0	 0.0	 0.0	 0.0	 1	    0.99750	    0.00000	 69.0	 1	    1.05000	    0.94500;
	19	 1	 0.0	 0.0	 0.0	 0.0	 1	    0.99750	    0.00000	 69.0	 1	    1.05000	    0.94500;
	20	 1	 6.495	 0.938	 0.0	 0.0	 1	    0.99750	    0.00000	 13.0	 1	    1.05000	    0.94500;
	21	 1	 9.554	 0.399	 0.0	 0.0	 1	    0.99750	    0.00000	 13.0	 1	    1.05000	    0.94500;
	22	 1	 4.059	 0.452	 0.0	 0.0	 1	    0.99750	    0.00000	 13.0	 1	    1.05000	    0.94500;
	23	 1	 0.731	 5.284	 0.0	 6.08	 1	    0.99750	    0.00000	 69.0	 1	    1.05000	    0.94500;
	24	 1	 1.124	 0.894	 0.0	 0.0	 1	    0.99750	    0.00000	 13.0	 1	    1.05000	    0.94500;
	25	 1	 19.216	 -2.484	 0.0	 10.7994369548	 1	    0.99750	    0.00000	 69.0	 1	    1.05000	    0.94500;
	26	 2	 0.0	 0.0	 0.0	 0.0	 1	    0.99750	    0.00000	 69.0	 1	    1.05000	    0.94500;
	27	 1	 8.894	 0.156	 0.0	 0.0	 1	    0.99750	    0.00000	 13.0	 1	    1.05000	    0.94500;
	28	 1	 0.0	 0.0	 0.0	 0.0115112286574	 1	    0.99750	    0.00000	 230.0	 2	    1.05000	    0.94500;
	29	 1	 0.0	 0.0	 0.0	 0.0	 1	    0.99750	    0.00000	 1.0	 2	    1.05000	    0.94500;
	30	 1	 0.0	 0.0	 0.0	 2.58856290847	 1	    0.99750	    0.00000	 115.0	 2	    1.05000	    0.94500;
	31	 1	 -84.536	 19.644	 0.0	 0.0154304188359	 1	    0.99750	    0.00000	 115.0	 2	    1.05000	    0.94500;
	32	 1	 108.917	 51.229	 0.0	 1.9499780274	 1	    0.99750	    0.00000	 115.0	 2	    1.05000	    0.94500;
	33	 1	 0.0	 0.0	 0.0	 0.0	 1	    0.99750	    0.00000	 230.0	 2	    1.05000	    0.94500;
	34	 1	 -141.612	 -0.712	 0.0	 -4.8161904231	 1	    0.99750	    0.00000	 115.0	 2	    1.05000	    0.94500;
	35	 1	 0.0	 0.0	 0.0	 0.00296345705944	 1	    0.99750	    0.00000	 115.0	 2	    1.05000	    0.94500;
	36	 1	 97.168	 -39.905	 0.0	 21.8998089014	 1	    0.99750	    0.00000	 115.0	 2	    1.05000	    0.94500;
	37	 1	 0.0	 0.0	 0.0	 -0.857770246841	 1	    0.99750	    0.00000	 115.0	 2	    1.05000	    0.94500;
	38	 1	 40.769	 5.193	 0.0	 0.0	 1	    0.99750	    0.00000	 115.0	 2	    1.05000	    0.94500;
	39	 1	 20.421	 2.421	 0.0	 2.673	 1	    0.99750	    0.00000	 230.0	 2	    1.05000	    0.94500;
	40	 1	 0.0	 0.0	 0.0	 33.2699471293	 1	    0.99750	    0.00000	 230.0	 2	    1.05000	    0.94500;
	41	 1	 388.332	 -19.047	 0.0	 0.0	 1	    0.99750	    0.00000	 345.0	 2	    1.05000	    0.94500;
	42	 1	 -84.553	 19.644	 0.0	 0.0154249539518	 1	    0.99750	    0.00000	 115.0	 2	    1.05000	    0.94500;
	43	 1	 118.897	 0.163	 0.0	 -17.596	 1	    0.99750	    0.00000	 230.0	 2	    1.05000	    0.94500;
	44	 1	 25.719	 6.8	 0.0	 0.0	 1	    0.99750	    0.00000	 230.0	 2	    1.05000	    0.94500;
	45	 1	 36.719	 2.683	 0.0	 0.0	 1	    0.99750	    0.00000	 230.0	 2	    1.05000	    0.94500;
	46	 2	 0.0	 0.0	 0.0	 0.0	 1	    0.99750	    0.00000	 500.0	 2	    1.05000	    0.94500;
	47	 1	 0.0	 0.0	 0.0	 0.0	 1	    0.99750	    0.00000	 1.0	 2	    1.05000	    0.94500;
	48	 2	 -85.214	 25.688	 0.0	 0.0	 1	    0.99750	    0.00000	 22.8	 2	    1.05000	    0.94500;
	49	 1	 0.0	 0.0	 0.0	 47.499852397	 1	    0.99750	    0.00000	 230.0	 2	    1.05000	    0.94500;
	50	 2	 0.0	 0.0	 0.0	 -109.984	 1	    0.99750	    0.00000	 345.0	 2	    1.05000	    0.94500;
	51	 1	 0.0	 0.0	 0.0	 -0.353698269531	 1	    0.99750	    0.00000	 138.0	 2	    1.05000	    0.94500;
	52	 1	 -95.883	 20.573	 0.0	 0.0	 1	    0.99750	    0.00000	 21.0	 2	    1.05000	    0.94500;
	53	 1	 96.936	 -19.253	 0.0	 3.52997945004	 1	    0.99750	    0.00000	 230.0	 2	    1.05000	    0.94500;
	54	 2	 134.93	 -36.266	 0.0	 0.0	 1	    0.99750	    0.00000	 115.0	 2	    1.05000	    0.94500;
	55	 1	 -193.301	 -6.227	 0.0	 -0.00429687080184	 1	    0.99750	    0.00000	 115.0	 2	    1.05000	    0.94500;
	56	 1	 0.0	 0.0	 0.0	 -3.98369073905	 1	    0.99750	    0.00000	 115.0	 2	    1.05000	    0.94500;
	57	 1	 78.469	 23.127	 0.0	 44.7657810229	 1	    0.99750	    0.00000	 161.0	 2	    1.05000	    0.94500;
	58	 1	 0.0	 0.0	 0.0	 -0.868921177249	 1	    0.99750	    0.00000	 230.0	 2	    1.05000	    0.94500;
	59	 2	 60.538	 15.258	 0.0	 0.0	 1	    0.99750	    0.00000	 161.0	 2	    1.05000	    0.94500;
	60	 1	 -43.829	 24.646	 0.0	 -0.00134789283948	 1	    0.99750	    0.00000	 115.0	 2	    1.05000	    0.94500;
	61	 1	 93.448	 72.654	 0.0	 117.171948383	 1	    0.99750	    0.00000	 115.0	 2	    1.05000	    0.94500;
	62	 1	 27.521	 4.794	 0.0	 0.0	 1	    0.99750	    0.00000	 230.0	 2	    1.05000	    0.94500;
	63	 1	 0.0	 0.0	 0.0	 -2.39870628637	 1	    0.99750	    0.00000	 138.0	 2	    1.05000	    0.94500;
	64	 1	 0.0	 0.0	 0.0	 -0.0158257362728	 1	    0.99750	    0.00000	 230.0	 2	    1.05000	    0.94500;
	65	 1	 0.0	 0.0	 0.0	 -0.00543947763116	 1	    0.99750	    0.00000	 230.0	 2	    1.05000	    0.94500;
	66	 1	 0.0	 0.0	 0.0	 16.9282887087	 1	    0.99750	    0.00000	 230.0	 2	    1.05000	    0.94500;
	67	 1	 0.0	 0.0	 0.0	 10.73167357	 1	    0.99750	    0.00000	 230.0	 2	    1.05000	    0.94500;
	68	 1	 0.0	 0.0	 0.0	 -0.0350512421951	 1	    0.99750	    0.00000	 161.0	 2	    1.05000	    0.94500;
	69	 2	 32.553	 5.28	 0.0	 -47.238	 1	    0.99750	    0.00000	 230.0	 2	    1.05000	    0.94500;
	70	 2	 0.0	 0.0	 0.0	 0.0	 1	    0.99750	    0.00000	 230.0	 2	    1.05000	    0.94500;
	71	 1	 -141.603	 -1.198	 0.0	 -5.30192331945	 1	    0.99750	    0.00000	 115.0	 2	    1.05000	    0.94500;
	72	 1	 0.0	 0.0	 0.0	 0.0	 1	    0.99750	    0.00000	 230.0	 2	    1.05000	    0.94500;
	73	 2	 0.0	 0.0	 0.0	 17.995	 1	    0.99750	    0.00000	 1.0	 2	    1.05000	    0.94500;
	74	 1	 136.474	 -31.264	 0.0	 12.4398188082	 1	    0.99750	    0.00000	 115.0	 2	    1.05000	    0.94500;
	75	 1	 0.0	 0.0	 0.0	 0.0	 1	    0.99750	    0.00000	 230.0	 2	    1.05000	    0.94500;
	76	 1	 30.082	 3.7	 0.0	 0.00280008871111	 1	    0.99750	    0.00000	 115.0	 2	    1.05000	    0.94500;
	77	 1	 21.41	 -4.733	 0.0	 6.63977873646	 1	    0.99750	    0.00000	 230.0	 2	    1.05000	    0.94500;
	78	 2	 0.0	 0.0	 0.0	 12.364	 1	    0.99750	    0.00000	 1.0	 2	    1.05000	    0.94500;
	79	 1	 20.804	 2.371	 0.0	 0.0	 1	    0.99750	    0.00000	 230.0	 2	    1.05000	    0.94500;
	80	 1	 0.0	 0.0	 0.0	 0.0	 1	    0.99750	    0.00000	 500.0	 2	    1.05000	    0.94500;
	81	 1	 183.238	 11.185	 0.0	 0.0	 1	    0.99750	    0.00000	 230.0	 2	    1.05000	    0.94500;
	82	 1	 23.025	 1.607	 0.0	 0.0	 1	    0.99750	    0.00000	 35.0	 3	    1.05000	    0.94500;
	83	 1	 2.141	 -2.058	 0.0	 0.0	 1	    0.99750	    0.00000	 115.0	 3	    1.05000	    0.94500;
	84	 1	 16.334	 0.052	 0.0	 0.0	 1	    0.99750	    0.00000	 35.0	 3	    1.05000	    0.94500;
	85	 1	 3.14	 2.692	 0.0	 0.0	 1	    0.99750	    0.00000	 115.0	 3	    1.05000	    0.94500;
	86	 1	 45.595	 37.117	 0.0	 0.0	 1	    0.99750	    0.00000	 4.0	 3	    1.05000	    0.94500;
	87	 1	 19.76	 0.747	 0.0	 0.0	 1	    0.99750	    0.00000	 35.0	 3	    1.05000	    0.94500;
	88	 1	 37.727	 2.102	 0.0	 0.0	 1	    0.99750	    0.00000	 22.0	 3	    1.05000	    0.94500;
	89	 2	 0.0	 0.0	 0.0	 0.0	 1	    0.99750	    0.00000	 13.0	 3	    1.05000	    0.94500;
	90	 2	 2.792	 0.13	 0.0	 -4.777	 1	    0.99750	    0.00000	 115.0	 3	    1.05000	    0.94500;
	91	 1	 0.0	 0.0	 0.0	 0.0	 1	    0.99750	    0.00000	 230.0	 3	    1.05000	    0.94500;
	92	 1	 0.0	 0.0	 0.0	 33.9989875512	 1	    0.99750	    0.00000	 115.0	 3	    1.05000	    0.94500;
	93	 1	 9.724	 -2.822	 0.0	 0.0	 1	    0.99750	    0.00000	 13.0	 3	    1.05000	    0.94500;
	94	 1	 0.0	 0.0	 0.0	 0.0	 1	    0.99750	    0.00000	 230.0	 3	    1.05000	    0.94500;
	95	 1	 23.498	 1.954	 0.0	 0.0	 1	    0.99750	    0.00000	 35.0	 3	    1.05000	    0.94500;
	96	 1	 0.0	 0.0	 0.0	 0.0	 1	    0.99750	    0.00000	 115.0	 3	    1.05000	    0.94500;
	97	 1	 0.0	 0.0	 0.0	 0.0	 1	    0.99750	    0.00000	 230.0	 3	    1.05000	    0.94500;
	98	 1	 0.0	 0.0	 0.0	 0.0	 1	    0.99750	    0.00000	 230.0	 3	    1.05000	    0.94500;
	99	 1	 13.426	 3.187	 0.0	 0.0	 1	    0.99750	    0.00000	 35.0	 3	    1.05000	    0.94500;
	100	 1	 14.3	 -0.434	 0.0	 0.0	 1	    0.99750	    0.00000	 35.0	 3	    1.05000	    0.94500;
	101	 1	 1.418	 -0.052	 0.0	 0.0	 1	    0.99750	    0.00000	 115.0	 3	    1.05000	    0.94500;
	102	 1	 0.0	 0.0	 0.0	 0.0	 1	    0.99750	    0.00000	 20.0	 3	    1.05000	    0.94500;
	103	 1	 7.868	 2.171	 0.0	 0.0	 1	    0.99750	    0.00000	 35.0	 3	    1.05000	    0.94500;
	104	 1	 8.885	 -3.317	 0.0	 0.0	 1	    0.99750	    0.00000	 35.0	 3	    1.05000	    0.94500;
	105	 1	 29.181	 -1.893	 0.0	 0.0	 1	    0.99750	    0.00000	 35.0	 3	    1.05000	    0.94500;
	106	 1	 11.517	 1.476	 0.0	 0.0	 1	    0.99750	    0.00000	 35.0	 3	    1.05000	    0.94500;
	107	 1	 0.0	 0.0	 0.0	 0.0	 1	    0.99750	    0.00000	 115.0	 3	    1.05000	    0.94500;
	108	 1	 24.14	 4.446	 0.0	 0.0	 1	    0.99750	    0.00000	 35.0	 3	    1.05000	    0.94500;
	109	 1	 17.592	 4.846	 0.0	 0.0	 1	    0.99750	    0.00000	 230.0	 3	    1.05000	    0.94500;
	110	 1	 38.762	 19.145	 0.0	 0.0	 1	    0.99750	    0.00000	 115.0	 3	    1.05000	    0.94500;
	111	 1	 0.0	 0.0	 0.0	 0.0	 1	    0.99750	    0.00000	 500.0	 3	    1.05000	    0.94500;
	112	 1	 29.377	 0.226	 0.0	 0.0	 1	    0.99750	    0.00000	 35.0	 3	    1.05000	    0.94500;
	113	 1	 -1.338	 -0.608	 0.0	 0.0	 1	    0.99750	    0.00000	 7.0	 3	    1.05000	    0.94500;
	114	 1	 8.618	 4.776	 0.0	 0.0	 1	    0.99750	    0.00000	 13.0	 3	    1.05000	    0.94500;
	115	 1	 0.0	 0.0	 0.0	 0.0	 1	    0.99750	    0.00000	 115.0	 3	    1.05000	    0.94500;
	116	 1	 9.394	 -0.842	 0.0	 0.0	 1	    0.99750	    0.00000	 13.0	 3	    1.05000	    0.94500;
	117	 1	 2.302	 4.829	 0.0	 0.0	 1	    0.99750	    0.00000	 13.0	 3	    1.05000	    0.94500;
	118	 1	 0.0	 0.0	 0.0	 0.0	 1	    0.99750	    0.00000	 500.0	 3	    1.05000	    0.94500;
	119	 1	 0.0	 0.0	 0.0	 0.0	 1	    0.99750	    0.00000	 115.0	 3	    1.05000	    0.94500;
	120	 1	 3.354	 1.685	 0.0	 0.0	 1	    0.99750	    0.00000	 4.0	 3	    1.05000	    0.94500;
	121	 1	 0.0	 0.0	 0.0	 0.0	 1	    0.99750	    0.00000	 230.0	 3	    1.05000	    0.94500;
	122	 1	 40.724	 33.826	 0.0	 0.0	 1	    0.99750	    0.00000	 22.0	 3	    1.05000	    0.94500;
	123	 1	 15.059	 -2.128	 0.0	 0.0	 1	    0.99750	    0.00000	 13.0	 3	    1.05000	    0.94500;
	124	 1	 0.0	 0.0	 0.0	 0.0	 1	    0.99750	    0.00000	 230.0	 3	    1.05000	    0.94500;
	125	 1	 0.0	 0.0	 0.0	 24.3999520148	 1	    0.99750	    0.00000	 115.0	 3	    1.05000	    0.94500;
	126	 1	 15.264	 26.54	 0.0	 0.0	 1	    0.99750	    0.00000	 115.0	 3	    1.05000	    0.94500;
	127	 1	 9.456	 0.13	 0.0	 0.0	 1	    0.99750	    0.00000	 13.0	 3	    1.05000	    0.94500;
	128	 1	 0.0	 0.0	 0.0	 0.0	 1	    0.99750	    0.00000	 14.0	 3	    1.05000	    0.94500;
	129	 2	 6.066	 3.378	 0.0	 -8.836	 1	    0.99750	    0.00000	 115.0	 3	    1.05000	    0.94500;
	130	 1	 587.525	 75.909	 0.0	 0.0	 1	    0.99750	    0.00000	 500.0	 3	    1.05000	    0.94500;
	131	 1	 49.485	 6.435	 0.0	 0.0	 1	    0.99750	    0.00000	 22.0	 3	    1.05000	    0.94500;
	132	 1	 0.0	 0.0	 0.0	 0.0	 1	    0.99750	    0.00000	 230.0	 3	    1.05000	    0.94500;
	133	 1	 12.097	 0.703	 0.0	 0.0	 1	    0.99750	    0.00000	 22.0	 3	    1.05000	    0.94500;
	134	 1	 0.0	 0.0	 0.0	 0.0	 1	    0.99750	    0.00000	 115.0	 3	    1.05000	    0.94500;
	135	 1	 9.117	 -0.834	 0.0	 0.0	 1	    0.99750	    0.00000	 35.0	 3	    1.05000	    0.94500;
	136	 1	 0.0	 0.0	 0.0	 0.0	 1	    0.99750	    0.00000	 230.0	 3	    1.05000	    0.94500;
	137	 1	 0.0	 0.0	 0.0	 0.0	 1	    0.99750	    0.00000	 14.0	 3	    1.05000	    0.94500;
	138	 1	 7.895	 -3.769	 0.0	 0.0	 1	    0.99750	    0.00000	 13.0	 3	    1.05000	    0.94500;
	139	 1	 16.557	 -0.287	 0.0	 0.0	 1	    0.99750	    0.00000	 35.0	 3	    1.05000	    0.94500;
	140	 1	 0.0	 0.0	 0.0	 0.0	 1	    0.99750	    0.00000	 20.0	 3	    1.05000	    0.94500;
	141	 1	 0.0	 0.0	 0.0	 0.0	 1	    0.99750	    0.00000	 230.0	 3	    1.05000	    0.94500;
	142	 1	 0.0	 0.0	 0.0	 0.0	 1	    0.99750	    0.00000	 230.0	 3	    1.05000	    0.94500;
	143	 1	 11.811	 8.181	 0.0	 0.0	 1	    0.99750	    0.00000	 4.0	 3	    1.05000	    0.94500;
	144	 1	 6.37	 0.591	 0.0	 0.0	 1	    0.99750	    0.00000	 35.0	 3	    1.05000	    0.94500;
	145	 1	 0.0	 0.0	 0.0	 0.0	 1	    0.99750	    0.00000	 14.0	 3	    1.05000	    0.94500;
	146	 2	 0.0	 0.0	 0.0	 -76.414	 1	    0.99750	    0.00000	 500.0	 3	    1.05000	    0.94500;
	147	 1	 0.0	 0.0	 0.0	 0.0	 1	    0.99750	    0.00000	 230.0	 3	    1.05000	    0.94500;
	148	 1	 0.0	 0.0	 0.0	 0.0	 1	    0.99750	    0.00000	 230.0	 3	    1.05000	    0.94500;
	149	 1	 10.339	 1.72	 0.0	 0.0	 1	    0.99750	    0.00000	 13.0	 3	    1.05000	    0.94500;
	150	 1	 0.0	 0.0	 0.0	 5.02090361698	 1	    0.99750	    0.00000	 115.0	 3	    1.05000	    0.94500;
	151	 1	 0.0	 0.0	 0.0	 0.0	 1	    0.99750	    0.00000	 230.0	 3	    1.05000	    0.94500;
	152	 1	 0.0	 0.0	 0.0	 0.0	 1	    0.99750	    0.00000	 230.0	 3	    1.05000	    0.94500;
	153	 1	 16.977	 -3.335	 0.0	 0.0	 1	    0.99750	    0.00000	 35.0	 3	    1.05000	    0.94500;
	154	 1	 20.501	 0.365	 0.0	 0.0	 1	    0.99750	    0.00000	 35.0	 3	    1.05000	    0.94500;
	155	 1	 0.0	 0.0	 0.0	 0.0	 1	    0.99750	    0.00000	 230.0	 3	    1.05000	    0.94500;
	156	 1	 0.0	 0.0	 0.0	 0.0	 1	    0.99750	    0.00000	 500.0	 3	    1.05000	    0.94500;
	157	 1	 3.979	 -2.084	 0.0	 0.0	 1	    0.99750	    0.00000	 35.0	 3	    1.05000	    0.94500;
	158	 1	 13.06	 1.459	 0.0	 0.0	 1	    0.99750	    0.00000	 35.0	 3	    1.05000	    0.94500;
	159	 1	 3.738	 2.18	 0.0	 0.0	 1	    0.99750	    0.00000	 36.5	 3	    1.05000	    0.94500;
	160	 1	 10.768	 1.659	 0.0	 0.0	 1	    0.99750	    0.00000	 34.5	 3	    1.05000	    0.94500;
	161	 1	 14.131	 2.961	 0.0	 0.0	 1	    0.99750	    0.00000	 35.0	 3	    1.05000	    0.94500;
	162	 1	 8.386	 1.042	 0.0	 0.0	 1	    0.99750	    0.00000	 13.0	 3	    1.05000	    0.94500;
	163	 2	 23.801	 54.442	 0.0	 0.0	 1	    0.99750	    0.00000	 13.0	 3	    1.05000	    0.94500;
	164	 1	 0.0	 0.0	 0.0	 0.0	 1	    0.99750	    0.00000	 115.0	 3	    1.05000	    0.94500;
	165	 1	 0.0	 0.0	 0.0	 0.0	 1	    0.99750	    0.00000	 500.0	 3	    1.05000	    0.94500;
	166	 1	 0.0	 0.0	 0.0	 0.0	 1	    0.99750	    0.00000	 500.0	 3	    1.05000	    0.94500;
	167	 1	 0.0	 0.0	 0.0	 0.0	 1	    0.99750	    0.00000	 230.0	 3	    1.05000	    0.94500;
	168	 1	 0.0	 0.0	 0.0	 0.0	 1	    0.99750	    0.00000	 230.0	 3	    1.05000	    0.94500;
	169	 1	 29.653	 -0.86	 0.0	 0.0	 1	    0.99750	    0.00000	 35.0	 3	    1.05000	    0.94500;
	170	 1	 15.585	 -6.314	 0.0	 0.0	 1	    0.99750	    0.00000	 230.0	 3	    1.05000	    0.94500;
	171	 1	 27.905	 7.833	 0.0	 0.0	 1	    0.99750	    0.00000	 35.0	 3	    1.05000	    0.94500;
	172	 1	 0.0	 0.0	 0.0	 0.0	 1	    0.99750	    0.00000	 115.0	 3	    1.05000	    0.94500;
	173	 1	 0.0	 0.0	 0.0	 0.0	 1	    0.99750	    0.00000	 230.0	 3	    1.05000	    0.94500;
	174	 1	 13.979	 2.345	 0.0	 0.0	 1	    0.99750	    0.00000	 13.0	 3	    1.05000	    0.94500;
	175	 1	 0.0	 0.0	 0.0	 0.0	 1	    0.99750	    0.00000	 230.0	 3	    1.05000	    0.94500;
	176	 1	 10.973	 1.007	 0.0	 0.0	 1	    0.99750	    0.00000	 35.0	 3	    1.05000	    0.94500;
	177	 1	 0.0	 0.0	 0.0	 0.0	 1	    0.99750	    0.00000	 230.0	 3	    1.05000	    0.94500;
	178	 1	 8.689	 5.558	 0.0	 0.0	 1	    0.99750	    0.00000	 35.0	 3	    1.05000	    0.94500;
	179	 1	 12.775	 -0.365	 0.0	 0.0	 1	    0.99750	    0.00000	 35.0	 3	    1.05000	    0.94500;
	180	 1	 19.492	 -1.746	 0.0	 0.0	 1	    0.99750	    0.00000	 35.0	 3	    1.05000	    0.94500;
	181	 1	 0.0	 0.0	 0.0	 0.0	 1	    0.99750	    0.00000	 230.0	 3	    1.05000	    0.94500;
	182	 1	 0.0	 0.0	 0.0	 0.0	 1	    0.99750	    0.00000	 115.0	 3	    1.05000	    0.94500;
	183	 2	 106.321	 10.986	 0.0	 0.0	 1	    0.99750	    0.00000	 230.0	 3	    1.05000	    0.94500;
	184	 1	 0.0	 0.0	 0.0	 0.0	 1	    0.99750	    0.00000	 500.0	 3	    1.05000	    0.94500;
	185	 1	 0.0	 0.0	 0.0	 0.0	 1	    0.99750	    0.00000	 230.0	 3	    1.05000	    0.94500;
	186	 1	 13.765	 1.346	 0.0	 0.0	 1	    0.99750	    0.00000	 35.0	 3	    1.05000	    0.94500;
	187	 1	 0.0	 0.0	 0.0	 0.0	 1	    0.99750	    0.00000	 230.0	 3	    1.05000	    0.94500;
	188	 1	 0.0	 0.0	 0.0	 0.0	 1	    0.99750	    0.00000	 115.0	 3	    1.05000	    0.94500;
	189	 2	 50.573	 0.009	 0.0	 0.0	 1	    0.99750	    0.00000	 35.0	 3	    1.05000	    0.94500;
	190	 1	 5.362	 -2.518	 0.0	 0.0	 1	    0.99750	    0.00000	 13.0	 3	    1.05000	    0.94500;
	191	 1	 7.601	 -1.98	 0.0	 0.0	 1	    0.99750	    0.00000	 13.0	 3	    1.05000	    0.94500;
	192	 1	 4.559	 0.929	 0.0	 0.0	 1	    0.99750	    0.00000	 13.0	 3	    1.05000	    0.94500;
	193	 1	 0.0	 0.0	 0.0	 0.0	 1	    0.99750	    0.00000	 14.0	 3	    1.05000	    0.94500;
	194	 2	 0.0	 0.0	 0.0	 0.0	 1	    0.99750	    0.00000	 13.0	 3	    1.05000	    0.94500;
	195	 1	 11.223	 -1.32	 0.0	 0.0	 1	    0.99750	    0.00000	 35.0	 3	    1.05000	    0.94500;
	196	 1	 5.852	 3.83	 0.0	 0.0	 1	    0.99750	    0.00000	 13.0	 3	    1.05000	    0.94500;
	197	 1	 23.311	 1.277	 0.0	 0.0	 1	    0.99750	    0.00000	 35.0	 3	    1.05000	    0.94500;
	198	 1	 0.0	 0.0	 0.0	 0.0	 1	    0.99750	    0.00000	 115.0	 3	    1.05000	    0.94500;
	199	 1	 0.0	 0.0	 0.0	 0.0	 1	    0.99750	    0.00000	 115.0	 3	    1.05000	    0.94500;
	200	 1	 7.868	 0.087	 0.0	 0.00996251223203	 1	    0.99750	    0.00000	 13.2	 3	    1.05000	    0.94500;
...
];

%% generator data
%	bus	Pg	Qg	Qmax	Qmin	Vg	mBase	status	Pmax	Pmin
mpc.gen = [
	2	 0.0	 0.0	 21.136	 -21.136	 0.9975	 71.2	 0	 67.941	 42.75;
	5	 0.0	 0.0	 15.15	 -9.9	 0.9975	 30.11	 0	 154.412	 25.795;
	6	 807.4385	 0.0	 550.0	 -550.0	 0.9975	 100.0	 1	 1600.0	 14.877;
	9	 806.771	 0.0	 550.0	 -550.0	 0.9975	 100.0	 1	 1600.0	 13.542;
	16	 801.0	 0.0	 550.0	 -550.0	 0.9975	 100.0	 1	 1600.0	 2.0;
	23	 0.0	 0.0	 7.686	 -2.025	 0.9975	 100.0	 0	 24.706	 2.0;
	26	 801.1285	 0.0	 550.0	 -550.0	 0.9975	 100.0	 1	 1600.0	 2.257;
	43	 0.0	 0.0	 9.607	 -9.607	 0.9975	 100.0	 0	 30.882	 2.0;
	46	 21.0	 0.0	 600.0	 -600.0	 0.9975	 2300.0	 1	 40.0	 2.0;
	48	 21.0	 30.2505	 216.361	 -155.86	 0.9975	 100.0	 1	 40.0	 2.0;
	50	 179.7045	 0.0	 33.333	 -33.333	 0.9975	 100.0	 1	 357.409	 2.0;
	52	 0.0	 0.0	 139.885	 -115.13	 0.9975	 100.0	 0	 449.647	 22.482;
	54	 829.26	 0.0	 550.0	 -550.0	 0.9975	 100.0	 1	 1600.0	 58.52;
	59	 942.1765	 0.0	 500.0	 -500.0	 0.9975	 1600.0	 1	 1882.353	 2.0;
	69	 43.874	 0.0	 26.676	 -26.676	 0.9975	 100.0	 1	 85.748	 2.0;
	70	 21.0	 0.0	 36.6	 -36.6	 0.9975	 100.0	 1	 40.0	 2.0;
	73	 108.651	 0.0	 33.333	 -33.333	 0.9975	 100.0	 1	 215.302	 2.0;
	78	 76.24	 0.0	 33.333	 -33.333	 0.9975	 100.0	 1	 150.48	 2.0;
	89	 376.9155	 0.0	 134.667	 -134.667	 0.9975	 804.0	 1	 689.706	 64.125;
	90	 22.7085	 0.0	 13.507	 -13.507	 0.9975	 100.0	 1	 43.417	 2.0;
	102	 0.0	 0.0	 61.104	 -61.104	 0.9975	 200.54	 0	 196.412	 85.5;
	122	 0.0	 0.0	 291.77	 -195.238	 0.9975	 1200.0	 0	 1464.327	 897.75;
	128	 0.0	 0.0	 31.567	 -31.567	 0.9975	 104.0	 0	 101.471	 71.25;
	129	 16.711	 0.0	 9.775	 -9.775	 0.9975	 100.0	 1	 31.422	 2.0;
	137	 0.0	 0.0	 22.5	 -22.5	 0.9975	 67.5	 0	 327.059	 16.353;
	137	 0.0	 0.0	 22.194	 -22.194	 0.9975	 67.5	 0	 71.341	 14.25;
	140	 0.0	 0.0	 286.303	 -99.0	 0.9975	 848.0	 0	 920.294	 9.5;
	145	 0.0	 0.0	 56.492	 -56.492	 0.9975	 234.0	 0	 181.588	 138.7;
	146	 21.0	 0.0	 33.333	 -33.333	 0.9975	 100.0	 1	 40.0	 2.0;
	163	 29.479	 0.0	 15.047	 -15.047	 0.9975	 100.0	 1	 56.54	 2.418;
	163	 0.0	 0.0	 33.333	 -33.333	 0.9975	 100.0	 0	 301.177	 15.059;
	183	 840.0	 0.0	 550.0	 -550.0	 0.9975	 100.0	 1	 1600.0	 80.0;
	189	 169.421	 0.0	 104.31	 -104.31	 0.9975	 100.0	 1	 335.294	 3.548;
	193	 0.0	 0.0	 31.567	 -31.567	 0.9975	 104.0	 0	 101.471	 71.25;
	194	 376.9155	 0.0	 134.667	 -134.667	 0.9975	 704.0	 1	 689.706	 64.125;
	218	 0.0	 0.0	 39.583	 -39.583	 0.9975	 160.0	 0	 127.235	 96.9;
	218	 0.0	 0.0	 39.583	 -39.583	 0.9975	 160.0	 0	 127.235	 96.9;
	218	 0.0	 0.0	 39.583	 -39.583	 0.9975	 160.0	 0	 127.235	 96.9;
	219	 21.0	 0.0	 600.0	 -600.0	 0.9975	 2000.0	 1	 40.0	 2.0;
	219	 21.0	 0.0	 600.0	 -600.0	 0.9975	 2000.0	 1	 40.0	 2.0;
	223	 0.0	 0.0	 197.613	 -137.41	 0.9975	 1055.0	 0	 635.206	 31.76;
	227	 376.9155	 0.0	 134.667	 -134.667	 0.9975	 704.0	 1	 689.706	 64.125;
	238	 1180.703	 121.2335	 437.88	 -195.413	 0.9975	 1200.0	 1	 1462.706	 898.7;
	247	 0.0	 0.0	 17.31	 -10.61	 0.9975	 25.0	 0	 302.353	 15.118;
	247	 0.0	 0.0	 17.31	 -10.61	 0.9975	 25.0	 0	 315.294	 15.765;
	247	 0.0	 0.0	 17.31	 -10.61	 0.9975	 25.0	 0	 343.529	 8.24;
	263	 0.0	 0.0	 62.97	 -67.458	 0.9975	 198.9	 0	 216.838	 9.5;
	267	 0.0	 0.0	 33.333	 -33.333	 0.9975	 100.0	 0	 338.823	 16.941;
	282	 406.294	 0.0	 166.4	 -166.4	 0.9975	 800.0	 1	 810.588	 2.0;
	282	 378.9785	 0.0	 200.59	 -200.59	 0.9975	 800.0	 1	 743.035	 14.922;
	289	 0.0	 0.0	 3.883	 -3.883	 0.9975	 100.0	 0	 12.482	 2.0;
	298	 0.0	 0.0	 59.951	 -59.951	 0.9975	 226.0	 0	 192.706	 147.25;
	328	 21.0	 0.0	 15.415	 -15.415	 0.9975	 100.0	 1	 40.0	 2.0;
	336	 97.397	 0.0	 57.645	 -57.645	 0.9975	 198.9	 1	 185.294	 9.5;
	337	 0.0	 0.0	 16.909	 -16.909	 0.9975	 57.87	 0	 54.353	 11.4;
	339	 176.6475	 -0.775	 71.77	 -73.32	 0.9975	 88.24	 1	 336.471	 16.824;
	339	 0.0	 0.0	 71.77	 -73.32	 0.9975	 131.6	 0	 327.059	 16.353;
	339	 0.0	 0.0	 42.287	 -42.287	 0.9975	 131.6	 0	 135.926	 60.48;
	340	 0.0	 0.0	 33.333	 -33.333	 0.9975	 100.0	 0	 340.0	 17.0;
	340	 0.0	 0.0	 33.333	 -33.333	 0.9975	 100.0	 0	 348.235	 17.412;
	340	 0.0	 0.0	 33.333	 -33.333	 0.9975	 100.0	 0	 302.353	 15.118;
	346	 21.0	 0.0	 36.6	 -36.6	 0.9975	 100.0	 1	 40.0	 2.0;
	351	 0.0	 0.0	 92.232	 -92.232	 0.9975	 100.0	 0	 296.471	 14.824;
	370	 0.0	 0.0	 66.059	 -44.625	 0.9975	 181.5	 0	 212.339	 10.0;
	371	 0.0	 0.0	 141.74	 -90.67	 0.9975	 384.0	 0	 518.486	 285.0;
	387	 0.0	 0.0	 6.149	 -6.149	 0.9975	 100.0	 0	 19.765	 4.75;
	388	 173.5	 17.2125	 78.975	 -44.55	 0.9975	 82.78	 1	 296.667	 50.333;
	416	 0.0	 0.0	 14.603	 -14.603	 0.9975	 54.4	 0	 46.941	 2.347;
	419	 840.0	 0.0	 550.0	 -550.0	 0.9975	 100.0	 1	 1600.0	 80.0;
	424	 0.0	 0.0	 78.397	 -42.075	 0.9975	 82.78	 0	 252.0	 50.108;
	426	 0.0	 0.0	 33.333	 -33.333	 0.9975	 100.0	 0	 304.706	 15.235;
	432	 0.0	 0.0	 63.41	 -63.41	 0.9975	 203.25	 0	 203.824	 50.54;
	444	 153.6355	 0.0	 92.232	 -92.232	 0.9975	 100.0	 1	 296.471	 10.8;
	447	 21.0	 0.0	 13.21	 -13.21	 0.9975	 100.0	 1	 40.0	 2.0;
	466	 803.7885	 0.0	 550.0	 -550.0	 0.9975	 100.0	 1	 1600.0	 7.577;
	483	 0.0	 0.0	 63.025	 -63.025	 0.9975	 218.0	 0	 202.588	 85.5;
	487	 0.0	 0.0	 37.471	 -37.471	 0.9975	 132.35	 0	 120.447	 33.25;
	488	 0.0	 0.0	 33.333	 -33.333	 0.9975	 100.0	 0	 329.412	 16.471;
	489	 21.0	 0.0	 19.461	 -19.461	 0.9975	 100.0	 1	 40.0	 2.0;
	491	 0.0	 0.0	 33.333	 -33.333	 0.9975	 100.0	 0	 303.529	 15.176;
	491	 0.0	 0.0	 33.333	 -33.333	 0.9975	 100.0	 0	 317.647	 15.882;
	499	 0.0	 0.0	 105.513	 -105.513	 0.9975	 515.0	 0	 339.162	 180.5;
	512	 840.0	 0.0	 550.0	 -550.0	 0.9975	 100.0	 1	 1600.0	 80.0;
	514	 21.0	 0.0	 33.333	 -33.333	 0.9975	 100.0	 1	 40.0	 2.0;
	515	 376.9155	 0.0	 134.667	 -134.667	 0.9975	 804.0	 1	 689.706	 64.125;
	521	 0.0	 0.0	 96.624	 -96.624	 0.9975	 100.0	 0	 310.588	 4.15;
	524	 0.0	 0.0	 67.22	 -44.587	 0.9975	 181.5	 0	 216.073	 96.9;
	529	 0.0	 0.0	 62.641	 -62.641	 0.9975	 200.54	 0	 201.353	 85.5;
	546	 0.0	 0.0	 31.567	 -31.567	 0.9975	 104.0	 0	 101.471	 71.25;
	558	 21.0	 0.0	 33.333	 -33.333	 0.9975	 100.0	 1	 40.0	 2.0;
	559	 21.0	 0.0	 217.129	 -217.129	 0.9975	 1055.0	 1	 40.0	 2.0;
	562	 0.0	 0.0	 22.5	 -22.5	 0.9975	 67.5	 0	 352.941	 17.647;
	562	 0.0	 0.0	 17.103	 -17.103	 0.9975	 67.5	 0	 54.976	 26.13;
	570	 21.0	 0.0	 27.586	 -27.586	 0.9975	 100.0	 1	 40.0	 2.0;
	571	 0.0	 0.0	 98.454	 -98.454	 0.9975	 100.0	 0	 316.471	 4.917;
	575	 161.206	 3.175	 70.7	 -64.35	 0.9975	 100.0	 1	 307.059	 15.353;
	588	 0.0	 0.0	 56.492	 -56.492	 0.9975	 234.0	 0	 181.588	 138.7;
	610	 0.0	 0.0	 18.007	 -18.007	 0.9975	 100.0	 0	 57.882	 34.2;
	617	 0.0	 0.0	 59.951	 -59.951	 0.9975	 226.0	 0	 192.706	 147.25;
	622	 0.0	 0.0	 58.1	 -98.088	 0.9975	 120.0	 0	 315.294	 15.765;
	622	 180.3525	 -24.386	 58.1	 -106.872	 0.9975	 120.0	 1	 343.529	 17.176;
	622	 153.2885	 -17.798	 58.1	 -93.696	 0.9975	 147.0	 1	 301.177	 5.4;
	622	 0.0	 0.0	 58.1	 -98.088	 0.9975	 120.0	 0	 315.294	 15.765;
	622	 163.4955	 -20.177	 58.1	 -98.454	 0.9975	 120.0	 1	 316.471	 10.52;
	622	 0.0	 0.0	 54.232	 -54.232	 0.9975	 147.0	 0	 174.324	 79.2;
	635	 176.382	 29.796	 108.702	 -49.11	 0.9975	 119.2	 1	 349.412	 3.352;
	635	 0.0	 0.0	 106.506	 -49.11	 0.9975	 119.2	 0	 342.353	 9.14;
	635	 0.0	 0.0	 100.284	 -49.11	 0.9975	 119.2	 0	 322.353	 16.118;
	635	 0.0	 0.0	 32.263	 -32.263	 0.9975	 115.0	 0	 103.706	 55.867;
	639	 806.7105	 0.0	 550.0	 -550.0	 0.9975	 100.0	 1	 1600.0	 13.421;
	651	 21.0	 0.0	 33.333	 -33.333	 0.9975	 100.0	 1	 40.0	 2.0;
	659	 0.0	 0.0	 22.5	 -22.5	 0.9975	 67.5	 0	 348.235	 17.412;
	659	 0.0	 0.0	 22.099	 -22.099	 0.9975	 67.5	 0	 71.035	 23.75;
	665	 0.0	 0.0	 33.333	 -33.333	 0.9975	 100.0	 0	 336.471	 16.824;
	665	 0.0	 0.0	 33.333	 -33.333	 0.9975	 100.0	 0	 314.118	 15.706;
	666	 0.0	 0.0	 31.567	 -31.567	 0.9975	 104.0	 0	 101.471	 71.25;
	674	 0.0	 0.0	 33.333	 -33.333	 0.9975	 100.0	 0	 340.0	 17.0;
	684	 0.0	 0.0	 98.088	 -0.375	 0.9975	 100.0	 0	 315.294	 3.667;
	685	 828.724	 0.0	 550.0	 -550.0	 0.9975	 100.0	 1	 1600.0	 57.448;
	688	 0.0	 0.0	 22.5	 -22.5	 0.9975	 67.5	 0	 298.823	 14.941;
	688	 0.0	 0.0	 16.335	 -16.335	 0.9975	 67.5	 0	 52.506	 15.2;
	698	 184.0585	 -38.55	 21.9	 -99.0	 0.9975	 100.0	 1	 350.588	 17.529;
	712	 430.7865	 -19.119	 81.85	 -120.088	 0.9975	 515.0	 1	 681.073	 180.5;
	716	 122.6795	 -5.098	 63.18	 -73.376	 0.9975	 198.9	 1	 235.859	 9.5;
	734	 46.306	 -2.9245	 13.75	 -19.599	 0.9975	 83.65	 1	 73.612	 19.0;
	735	 840.0	 0.0	 550.0	 -550.0	 0.9975	 100.0	 1	 1600.0	 80.0;
	736	 824.0995	 0.0	 550.0	 -550.0	 0.9975	 100.0	 1	 1600.0	 48.199;
	742	 0.0	 0.0	 59.567	 -59.567	 0.9975	 226.0	 0	 191.471	 146.3;
	750	 0.0	 0.0	 154.54	 -182.9	 0.9975	 444.44	 0	 1080.882	 291.6;
	762	 0.0	 0.0	 96.624	 -96.624	 0.9975	 980.0	 0	 310.588	 15.529;
	764	 0.0	 0.0	 94.428	 -94.428	 0.9975	 100.0	 0	 303.529	 15.176;
	764	 31.2295	 0.0	 18.809	 -18.809	 0.9975	 100.0	 1	 60.459	 2.0;
	767	 0.0	 0.0	 216.58	 -140.8	 0.9975	 771.0	 0	 980.838	 342.0;
	810	 0.0	 0.0	 32.281	 -32.281	 0.9975	 108.0	 0	 103.765	 42.75;
	814	 840.0	 0.0	 550.0	 -550.0	 0.9975	 100.0	 1	 1600.0	 80.0;
	816	 0.0	 0.0	 33.05	 -33.05	 0.9975	 108.0	 0	 106.235	 42.75;
	818	 0.0	 0.0	 42.273	 -42.273	 0.9975	 235.83	 0	 135.882	 99.75;
	818	 0.0	 0.0	 88.433	 -88.433	 0.9975	 265.3	 0	 338.823	 16.941;
	818	 0.0	 0.0	 58.957	 -58.957	 0.9975	 176.87	 0	 347.059	 17.353;
	820	 0.0	 0.0	 32.281	 -32.281	 0.9975	 108.0	 0	 103.765	 42.75;
	823	 147.798	 20.4995	 77.629	 -36.63	 0.9975	 235.83	 1	 249.529	 46.067;
	823	 0.0	 0.0	 25.25	 -10.89	 0.9975	 265.3	 0	 277.941	 13.897;
	823	 0.0	 0.0	 28.823	 -28.823	 0.9975	 176.87	 0	 92.647	 34.358;
	824	 804.767	 0.0	 550.0	 -550.0	 0.9975	 100.0	 1	 1600.0	 9.534;
	826	 0.0	 0.0	 1.443	 -1.443	 0.9975	 4.33	 0	 348.235	 17.412;
	826	 0.0	 0.0	 1.443	 -1.443	 0.9975	 4.33	 0	 309.412	 3.42;
	826	 0.0	 0.0	 1.443	 -1.443	 0.9975	 4.33	 0	 309.412	 15.471;
	827	 0.0	 0.0	 33.05	 -33.05	 0.9975	 108.0	 0	 106.235	 42.75;
	829	 0.0	 0.0	 131.431	 -131.431	 0.9975	 491.41	 0	 422.471	 203.3;
	829	 0.0	 0.0	 9.662	 -9.662	 0.9975	 33.7	 0	 31.059	 11.4;
	829	 0.0	 0.0	 64.562	 -64.562	 0.9975	 242.59	 0	 207.529	 72.2;
	829	 0.0	 0.0	 0.0	 0.0	 0.9975	 300.0	 0	 324.706	 5.7;
	837	 21.0	 0.0	 33.333	 -33.333	 0.9975	 100.0	 1	 40.0	 2.0;
	838	 290.493	 0.0	 127.547	 -127.547	 0.9975	 387.5	 1	 409.986	 171.0;
	839	 0.0	 0.0	 33.05	 -33.05	 0.9975	 108.0	 0	 106.235	 42.75;
	840	 0.0	 0.0	 33.05	 -33.05	 0.9975	 108.0	 0	 106.235	 42.75;
	841	 0.0	 0.0	 102.992	 -102.992	 0.9975	 387.5	 0	 331.059	 171.0;
	842	 0.0	 0.0	 41.861	 -41.58	 0.9975	 235.83	 0	 134.559	 76.25;
	842	 0.0	 0.0	 46.619	 -46.619	 0.9975	 265.3	 0	 149.853	 84.917;
	842	 0.0	 0.0	 28.786	 -28.786	 0.9975	 176.87	 0	 92.529	 56.642;
	850	 0.0	 0.0	 251.33	 -212.5	 0.9975	 636.62	 0	 810.595	 484.5;
	853	 0.0	 0.0	 77.629	 -77.629	 0.9975	 235.83	 0	 249.529	 99.75;
	853	 0.0	 0.0	 88.433	 -88.433	 0.9975	 265.3	 0	 302.353	 15.118;
	853	 0.0	 0.0	 58.957	 -58.957	 0.9975	 176.87	 0	 307.059	 15.353;
	858	 21.0	 0.0	 32.143	 -32.143	 0.9975	 100.0	 1	 40.0	 2.0;
	859	 0.0	 0.0	 11.053	 -11.053	 0.9975	 100.0	 0	 35.529	 15.2;
	862	 21.0	 0.0	 9.151	 -9.151	 0.9975	 100.0	 1	 40.0	 2.0;
	868	 922.113	 0.0	 550.0	 -550.0	 0.9975	 100.0	 1	 1764.226	 80.0;
	869	 813.097	 0.0	 550.0	 -550.0	 0.9975	 100.0	 1	 1600.0	 26.194;
	871	 871.2515	 145.6895	 340.879	 -49.5	 0.9975	 1020.0	 1	 1095.722	 646.781;
	873	 0.0	 0.0	 29.207	 -29.207	 0.9975	 100.0	 0	 93.882	 31.35;
	879	 0.0	 0.0	 33.333	 -33.333	 0.9975	 100.0	 0	 122.294	 74.1;
	880	 21.0	 0.0	 31.492	 -31.492	 0.9975	 100.0	 1	 40.0	 2.0;
	882	 0.0	 0.0	 201.758	 -201.758	 0.9975	 732.0	 0	 648.529	 498.75;
	883	 815.642	 0.0	 550.0	 -550.0	 0.9975	 100.0	 1	 1600.0	 31.284;
	884	 0.0	 0.0	 27.285	 -27.285	 0.9975	 100.0	 0	 87.706	 31.35;
	886	 21.0	 0.0	 33.333	 -33.333	 0.9975	 100.0	 1	 40.0	 2.0;
	888	 21.0	 0.0	 9.15	 -9.15	 0.9975	 100.0	 1	 40.0	 2.0;
	890	 0.0	 0.0	 26.901	 -26.901	 0.9975	 100.0	 0	 86.471	 29.45;
	892	 0.0	 0.0	 102.48	 -102.48	 0.9975	 214.0	 0	 329.412	 16.471;
	892	 0.0	 0.0	 62.451	 -62.451	 0.9975	 214.0	 0	 200.741	 80.75;
	893	 0.0	 0.0	 71.333	 -71.333	 0.9975	 214.0	 0	 328.235	 16.412;
	893	 0.0	 0.0	 64.562	 -64.562	 0.9975	 214.0	 0	 207.529	 89.3;
	896	 654.037	 92.29	 259.75	 -75.17	 0.9975	 732.0	 1	 834.941	 473.133;
	901	 0.0	 0.0	 33.333	 -33.333	 0.9975	 100.0	 0	 122.294	 57.0;
	902	 0.0	 0.0	 220.937	 -49.5	 0.9975	 1012.0	 0	 1300.045	 736.692;
	905	 0.0	 0.0	 11.749	 -11.749	 0.9975	 100.0	 0	 37.765	 17.1;
	908	 0.0	 0.0	 55.248	 -55.248	 0.9975	 250.0	 0	 177.588	 8.879;
	910	 0.0	 0.0	 0.417	 -0.417	 0.9975	 1.25	 0	 331.765	 16.588;
	910	 30.676	 0.0	 18.464	 -18.464	 0.9975	 100.0	 1	 59.352	 2.0;
	913	 0.0	 0.0	 10.1	 -9.775	 0.9975	 25.98	 0	 75.074	 20.65;
	914	 0.0	 0.0	 40.352	 -40.352	 0.9975	 128.0	 0	 129.706	 99.75;
	917	 0.0	 0.0	 21.136	 -21.136	 0.9975	 100.0	 0	 67.941	 42.75;
	918	 0.0	 0.0	 31.183	 -31.183	 0.9975	 113.0	 0	 100.235	 70.2;
	918	 0.0	 0.0	 29.968	 -29.968	 0.9975	 113.0	 0	 96.329	 66.88;
	919	 34.8515	 3.07	 10.1	 -3.96	 0.9975	 43.45	 1	 64.953	 4.75;
	924	 100.597	 0.0	 33.333	 -33.333	 0.9975	 100.0	 1	 192.94	 8.254;
	929	 0.0	 0.0	 10.1	 -10.287	 0.9975	 44.0	 0	 48.176	 4.75;
	931	 0.0	 0.0	 21.136	 -21.136	 0.9975	 100.0	 0	 67.941	 42.75;
	931	 0.0	 0.0	 21.136	 -21.136	 0.9975	 100.0	 0	 67.941	 42.75;
...
];

%% generator cost data
%	2	startup	shutdown	n	c(n-1)	...	c0
mpc.gencost = [
	2	 0.0	 0.0	 3	   0.503800	   0.000000	 2943.000000;
	2	 0.0	 0.0	 3	   0.040410	  40.200000	 1587.000000;
2	0.0	0.0	3	0.2	0.757900	1399.000000;
2	0.0	0.0	3	0.2	0.774200	1065.000000;
2	0.0	0.0	3	0.2	0.515000	167.800000;
2	0.0	0.0	3	0.2	36.250000	114.400000;
2	0.0	0.0	3	0.2	0.515100	224.300000;
2	0.0	0.0	3	0.2	9.992000	101.600000;
2	0.0	0.0	3	0.2	30.350000	158.300000;
2	0.0	0.0	3	0.2	21.600000	339.700000;
2	0.0	0.0	3	0.2	0.884000	100.700000;
2	0.0	0.0	3	0.2	1.458000	1821.000000;
2	0.0	0.0	3	0.2	0.604600	4689.000000;
2	0.0	0.0	3	0.2	0.361800	204.200000;
2	0.0	0.0	3	0.2	14.510000	168.700000;
2	0.0	0.0	3	0.2	21.150000	150.000000;
	2	 0.0	 0.0	 3	   0.019400	  20.650000	 202.800000;
2	0.0	0.0	3	0.2	21.550000	174.700000;
	2	 0.0	 0.0	 3	   0.002088	   0.000000	 6741.000000;
2	0.0	0.0	3	0.2	22.850000	139.300000;
	2	 0.0	 0.0	 3	   0.050410	  34.580000	 4631.000000;
2	0.0	0.0	3	0.2	0.469100	58420.000000;
	2	 0.0	 0.0	 3	   0.705200	  80.320000	 -886.800000;
2	0.0	0.0	3	0.2	6.494000	111.800000;
2	0.0	0.0	3	0.2	1.665000	1096.000000;
2	0.0	0.0	3	0.2	3.440000	1379.000000;
2	0.0	0.0	3	0.2	0.369500	657.000000;
	2	 0.0	 0.0	 3	   0.353500	  29.230000	 3302.000000;
2	0.0	0.0	3	0.2	27.580000	119.100000;
2	0.0	0.0	3	0.2	18.600000	281.400000;
2	0.0	0.0	3	0.2	2.305000	1047.000000;
2	0.0	0.0	3	0.2	0.541800	6406.000000;
2	0.0	0.0	3	0.2	1.239000	267.200000;
2	0.0	0.0	3	0.2	198.000000	-6350.000000;
2	0.0	0.0	3	0.2	1.497000	5066.000000;
	2	 0.0	 0.0	 3	   0.765300	   3.521000	 1929.000000;
	2	 0.0	 0.0	 3	   0.703600	  43.730000	 -4206.000000;
	2	 0.0	 0.0	 3	   0.698900	  44.790000	 -1012.000000;
2	0.0	0.0	3	0.2	24.440000	219.100000;
2	0.0	0.0	3	0.2	25.370000	187.900000;
	2	 0.0	 0.0	 3	   0.002184	   0.000000	 2607.000000;
2	0.0	0.0	3	0.2	2.775000	7474.000000;
2	0.0	0.0	3	0.2	0.682200	59720.000000;
2	0.0	0.0	3	0.2	1.293000	908.900000;
2	0.0	0.0	3	0.2	1.007000	1216.000000;
2	0.0	0.0	3	0.2	0.617300	626.900000;
	2	 0.0	 0.0	 3	   0.020530	  20.930000	 778.300000;
2	0.0	0.0	3	0.2	0.190600	1127.000000;
2	0.0	0.0	3	0.2	7.399000	231.200000;
	2	 0.0	 0.0	 3	   0.001192	   6.528000	 1340.000000;
2	0.0	0.0	3	0.2	87.380000	-18.290000;
	2	 0.0	 0.0	 3	   0.320500	  25.420000	 4352.000000;
2	0.0	0.0	3	0.2	7.598000	185.100000;
	2	 0.0	 0.0	 3	   0.021700	  30.510000	 685.200000;
2	0.0	0.0	3	0.2	24.000000	783.800000;
2	0.0	0.0	3	0.2	0.178200	1166.000000;
2	0.0	0.0	3	0.2	0.851000	1263.000000;
	2	 0.0	 0.0	 3	   0.116500	  58.080000	 2254.000000;
2	0.0	0.0	3	0.2	2.335000	1261.000000;
2	0.0	0.0	3	0.2	2.487000	1418.000000;
2	0.0	0.0	3	0.2	1.384000	941.500000;
2	0.0	0.0	3	0.2	6.613000	87.340000;
2	0.0	0.0	3	0.2	21.240000	1339.000000;
	2	 0.0	 0.0	 3	   0.015360	  23.330000	 708.600000;
2	0.0	0.0	3	0.2	0.787200	25970.000000;
2	0.0	0.0	3	0.2	84.410000	124.900000;
	2	 0.0	 0.0	 3	   0.014560	  16.480000	 4034.000000;
2	0.0	0.0	3	0.2	5.018000	51.540000;
2	0.0	0.0	3	0.2	2.480000	2468.000000;
	2	 0.0	 0.0	 3	   0.016460	  25.270000	 3811.000000;
2	0.0	0.0	3	0.2	1.528000	1077.000000;
	2	 0.0	 0.0	 3	   0.028490	  32.590000	 3466.000000;
	2	 0.0	 0.0	 3	   0.008243	  18.840000	 953.700000;
	2	 0.0	 0.0	 3	   0.172800	  28.540000	 127.700000;
2	0.0	0.0	3	0.2	0.771900	237.500000;
	2	 0.0	 0.0	 3	   0.063730	  26.940000	 5588.000000;
2	0.0	0.0	3	0.2	68.610000	1337.000000;
2	0.0	0.0	3	0.2	0.450300	1124.000000;
2	0.0	0.0	3	0.2	6.847000	144.800000;
2	0.0	0.0	3	0.2	1.572000	1053.000000;
2	0.0	0.0	3	0.2	1.170000	1122.000000;
2	0.0	0.0	3	0.2	2.287000	12670.000000;
2	0.0	0.0	3	0.2	0.165300	4865.000000;
2	0.0	0.0	3	0.2	6.613000	122.900000;
2	0.0	0.0	3	0.2	0.401700	3878.000000;
2	0.0	0.0	3	0.2	0.982500	365.300000;
	2	 0.0	 0.0	 3	   0.046980	  36.540000	 5908.000000;
	2	 0.0	 0.0	 3	   0.049700	  38.460000	 5100.000000;
	2	 0.0	 0.0	 3	   0.913900	  17.870000	 1046.000000;
	2	 0.0	 0.0	 3	   0.377400	   9.421000	 122.400000;
2	0.0	0.0	3	0.2	4.837000	154.700000;
2	0.0	0.0	3	0.2	1.916000	1437.000000;
2	0.0	0.0	3	0.2	20.360000	114.300000;
2	0.0	0.0	3	0.2	14.270000	126.100000;
2	0.0	0.0	3	0.2	1.144000	360.000000;
2	0.0	0.0	3	0.2	1.191000	951.700000;
	2	 0.0	 0.0	 3	   0.352500	  29.530000	 3278.000000;
2	0.0	0.0	3	0.2	49.740000	1501.000000;
	2	 0.0	 0.0	 3	   0.318800	  26.000000	 4315.000000;
2	0.0	0.0	3	0.2	2.518000	1145.000000;
2	0.0	0.0	3	0.2	2.521000	1374.000000;
2	0.0	0.0	3	0.2	1.341000	372.200000;
2	0.0	0.0	3	0.2	1.819000	1099.000000;
2	0.0	0.0	3	0.2	0.868700	698.000000;
	2	 0.0	 0.0	 3	   0.068770	  39.460000	 3838.000000;
2	0.0	0.0	3	0.2	0.407200	509.600000;
2	0.0	0.0	3	0.2	1.552000	619.700000;
2	0.0	0.0	3	0.2	1.930000	1026.000000;
	2	 0.0	 0.0	 3	   0.289600	  81.480000	 -1617.000000;
2	0.0	0.0	3	0.2	0.502000	1070.000000;
2	0.0	0.0	3	0.2	28.530000	283.800000;
2	0.0	0.0	3	0.2	1.337000	1255.000000;
2	0.0	0.0	3	0.2	7.095000	731.800000;
2	0.0	0.0	3	0.2	1.183000	956.000000;
2	0.0	0.0	3	0.2	1.378000	1022.000000;
	2	 0.0	 0.0	 3	   0.883300	  23.160000	 837.100000;
2	0.0	0.0	3	0.2	0.943400	1190.000000;
2	0.0	0.0	3	0.2	1.390000	272.800000;
2	0.0	0.0	3	0.2	0.195200	2223.000000;
	2	 0.0	 0.0	 3	   0.007819	  16.610000	 1153.000000;
2	0.0	0.0	3	0.2	20.410000	931.000000;
2	0.0	0.0	3	0.2	1.060000	1271.000000;
2	0.0	0.0	3	0.2	2.245000	17320.000000;
	2	 0.0	 0.0	 3	   0.013110	  23.760000	 762.400000;
	2	 0.0	 0.0	 3	   0.133500	   0.000000	 1411.000000;
	2	 0.0	 0.0	 3	   0.000107	   0.770700	 8794.000000;
2	0.0	0.0	3	0.2	0.620700	5781.000000;
	2	 0.0	 0.0	 3	   0.321300	  26.720000	 4169.000000;
2	0.0	0.0	3	0.2	0.936500	21580.000000;
2	0.0	0.0	3	0.2	0.207900	1029.000000;
2	0.0	0.0	3	0.2	0.693200	1066.000000;
2	0.0	0.0	3	0.2	4.067000	110.400000;
2	0.0	0.0	3	0.2	0.223900	26410.000000;
	2	 0.0	 0.0	 3	   0.232200	  52.950000	 1494.000000;
	2	 0.0	 0.0	 3	   0.000222	   0.214800	 5617.000000;
	2	 0.0	 0.0	 3	   0.153600	  62.380000	 1078.000000;
	2	 0.0	 0.0	 3	   0.589700	   7.978000	 3051.000000;
2	0.0	0.0	3	0.2	0.176900	1168.000000;
2	0.0	0.0	3	0.2	0.801900	1338.000000;
	2	 0.0	 0.0	 3	   0.177300	  74.140000	 884.100000;
	2	 0.0	 0.0	 3	   0.016210	  25.220000	 3534.000000;
	2	 0.0	 0.0	 3	   0.009644	  20.310000	 1184.000000;
2	0.0	0.0	3	0.2	20.950000	2792.000000;
2	0.0	0.0	3	0.2	0.682400	902.100000;
2	0.0	0.0	3	0.2	0.803400	1169.000000;
2	0.0	0.0	3	0.2	1.228000	244.400000;
2	0.0	0.0	3	0.2	0.479400	2113.000000;
	2	 0.0	 0.0	 3	   0.214700	  51.590000	 1591.000000;
2	0.0	0.0	3	0.2	2.697000	12460.000000;
2	0.0	0.0	3	0.2	11.240000	533.000000;
	2	 0.0	 0.0	 3	   0.047860	  25.810000	 4935.000000;
2	0.0	0.0	3	0.2	0.827900	419.900000;
2	0.0	0.0	3	0.2	5.815000	116.200000;
2	0.0	0.0	3	0.2	2.760000	11760.000000;
	2	 0.0	 0.0	 3	   0.163900	  71.800000	 1039.000000;
	2	 0.0	 0.0	 3	   0.163900	  71.800000	 996.600000;
2	0.0	0.0	3	0.2	2.841000	11320.000000;
	2	 0.0	 0.0	 3	   0.193800	  63.900000	 1819.000000;
	2	 0.0	 0.0	 3	   0.156800	  57.260000	 2674.000000;
2	0.0	0.0	3	0.2	39.160000	2021.000000;
	2	 0.0	 0.0	 3	   0.008173	   5.677000	 42460.000000;
2	0.0	0.0	3	0.2	21.360000	7967.000000;
2	0.0	0.0	3	0.2	1.229000	1062.000000;
2	0.0	0.0	3	0.2	1.244000	1114.000000;
2	0.0	0.0	3	0.2	7.657000	184.100000;
2	0.0	0.0	3	0.2	60.160000	644.800000;
	2	 0.0	 0.0	 3	   0.322400	   8.046000	 150.300000;
2	0.0	0.0	3	0.2	0.444600	5801.000000;
2	0.0	0.0	3	0.2	0.195900	2140.000000;
2	0.0	0.0	3	0.2	1.646000	47330.000000;
	2	 0.0	 0.0	 3	   0.109300	   0.000000	 2144.000000;
	2	 0.0	 0.0	 3	   0.289200	  69.970000	 837.100000;
2	0.0	0.0	3	0.2	24.300000	55.290000;
2	0.0	0.0	3	0.2	8.931000	47340.000000;
	2	 0.0	 0.0	 3	   0.000267	   0.232700	 6198.000000;
2	0.0	0.0	3	0.2	10.700000	1756.000000;
2	0.0	0.0	3	0.2	16.130000	137.800000;
2	0.0	0.0	3	0.2	15.950000	148.600000;
2	0.0	0.0	3	0.2	10.570000	1647.000000;
2	0.0	0.0	3	0.2	0.844900	1242.000000;
	2	 0.0	 0.0	 3	   0.046350	  37.850000	 2175.000000;
2	0.0	0.0	3	0.2	2.737000	1390.000000;
	2	 0.0	 0.0	 3	   0.047730	  37.490000	 5399.000000;
	2	 0.0	 0.0	 3	   0.005131	  10.170000	 42330.000000;
	2	 0.0	 0.0	 3	   0.155000	  65.760000	 1609.000000;
2	0.0	0.0	3	0.2	0.471800	47940.000000;
2	0.0	0.0	3	0.2	47.670000	560.000000;
	2	 0.0	 0.0	 3	   0.030960	  25.670000	 675.900000;
2	0.0	0.0	3	0.2	2.600000	508.000000;
2	0.0	0.0	3	0.2	13.250000	54.730000;
	2	 0.0	 0.0	 3	   0.123100	   0.000000	 947.700000;
	2	 0.0	 0.0	 3	   0.673200	  26.280000	 -50.970000;
2	0.0	0.0	3	0.2	9.711000	2485.000000;
	2	 0.0	 0.0	 3	   0.932500	  17.880000	 999.700000;
2	0.0	0.0	3	0.2	9.991000	3952.000000;
2	0.0	0.0	3	0.2	3.174000	280.100000;
	2	 0.0	 0.0	 3	   0.025850	  23.520000	 637.800000;
2	0.0	0.0	3	0.2	13.940000	272.600000;
2	0.0	0.0	3	0.2	31.720000	769.500000;
2	0.0	0.0	3	0.2	32.640000	2063.000000;
...
];

%% storage data
%	bus	energy	energy_rating	charge_rating	discharge_rating	thermal_rating	qmin	qmax	r	x	standby_loss	status
mpc.storage = [
	2029	0.0	0.0	1.00	2110.4625	1055.2312	759.7665	0.9	0.85	1000	-1000	1000	0.1	0.01	0	0	1;
	2675	0.0	0.0	1.00	1446.8730	723.4365	520.8743	0.9	0.85	1000	-1000	1000	0.1	0.01	0	0	1;
	4222	0.0	0.0	1.00	1375.1175	687.5588	495.0423	0.9	0.85	1000	-1000	1000	0.1	0.01	0	0	1;
	1977	0.0	0.0	1.00	1064.3430	532.1715	383.1635	0.9	0.85	1000	-1000	1000	0.1	0.01	0	0	1;
	1070	0.0	0.0	1.00	881.4555	440.7277	317.3240	0.9	0.85	1000	-1000	1000	0.1	0.01	0	0	1;
	130	0.0	0.0	1.00	881.2875	440.6437	317.2635	0.9	0.85	1000	-1000	1000	0.1	0.01	0	0	1;
	894	0.0	0.0	1.00	847.9785	423.9892	305.2723	0.9	0.85	1000	-1000	1000	0.1	0.01	0	0	1;
	2776	0.0	0.0	1.00	824.0355	412.0177	296.6528	0.9	0.85	1000	-1000	1000	0.1	0.01	0	0	1;
	1138	0.0	0.0	1.00	770.9910	385.4955	277.5568	0.9	0.85	1000	-1000	1000	0.1	0.01	0	0	1;
	4248	0.0	0.0	1.00	765.8250	382.9125	275.6970	0.9	0.85	1000	-1000	1000	0.1	0.01	0	0	1;
	4492	0.0	0.0	1.00	714.0885	357.0443	257.0719	0.9	0.85	1000	-1000	1000	0.1	0.01	0	0	1;
	4301	0.0	0.0	1.00	662.9010	331.4505	238.6444	0.9	0.85	1000	-1000	1000	0.1	0.01	0	0	1;
	828	0.0	0.0	1.00	660.0570	330.0285	237.6205	0.9	0.85	1000	-1000	1000	0.1	0.01	0	0	1;
	2357	0.0	0.0	1.00	634.1490	317.0745	228.2936	0.9	0.85	1000	-1000	1000	0.1	0.01	0	0	1;
	2964	0.0	0.0	1.00	631.5000	315.7500	227.3400	0.9	0.85	1000	-1000	1000	0.1	0.01	0	0	1;
	4452	0.0	0.0	1.00	620.2860	310.1430	223.3030	0.9	0.85	1000	-1000	1000	0.1	0.01	0	0	1;
	1924	0.0	0.0	1.00	611.1000	305.5500	219.9960	0.9	0.85	1000	-1000	1000	0.1	0.01	0	0	1;
	2965	0.0	0.0	1.00	610.9230	305.4615	219.9323	0.9	0.85	1000	-1000	1000	0.1	0.01	0	0	1;
	2014	0.0	0.0	1.00	609.4260	304.7130	219.3934	0.9	0.85	1000	-1000	1000	0.1	0.01	0	0	1;
	2768	0.0	0.0	1.00	604.6905	302.3453	217.6886	0.9	0.85	1000	-1000	1000	0.1	0.01	0	0	1;
	2025	0.0	0.0	1.00	598.1175	299.0588	215.3223	0.9	0.85	1000	-1000	1000	0.1	0.01	0	0	1;
	864	0.0	0.0	1.00	583.9155	291.9577	210.2096	0.9	0.85	1000	-1000	1000	0.1	0.01	0	0	1;
	41	0.0	0.0	1.00	582.4980	291.2490	209.6993	0.9	0.85	1000	-1000	1000	0.1	0.01	0	0	1;
	4764	0.0	0.0	1.00	581.5140	290.7570	209.3450	0.9	0.85	1000	-1000	1000	0.1	0.01	0	0	1;
	1274	0.0	0.0	1.00	574.2135	287.1068	206.7169	0.9	0.85	1000	-1000	1000	0.1	0.01	0	0	1;
	2886	0.0	0.0	1.00	573.3570	286.6785	206.4085	0.9	0.85	1000	-1000	1000	0.1	0.01	0	0	1;
	863	0.0	0.0	1.00	568.5615	284.2808	204.6821	0.9	0.85	1000	-1000	1000	0.1	0.01	0	0	1;
	4261	0.0	0.0	1.00	556.0035	278.0018	200.1613	0.9	0.85	1000	-1000	1000	0.1	0.01	0	0	1;
	1254	0.0	0.0	1.00	537.0285	268.5143	193.3303	0.9	0.85	1000	-1000	1000	0.1	0.01	0	0	1;
	4234	0.0	0.0	1.00	532.5855	266.2928	191.7308	0.9	0.85	1000	-1000	1000	0.1	0.01	0	0	1;
	4229	0.0	0.0	1.00	528.4365	264.2183	190.2371	0.9	0.85	1000	-1000	1000	0.1	0.01	0	0	1;
	4238	0.0	0.0	1.00	525.6270	262.8135	189.2257	0.9	0.85	1000	-1000	1000	0.1	0.01	0	0	1;
	2971	0.0	0.0	1.00	519.0660	259.5330	186.8638	0.9	0.85	1000	-1000	1000	0.1	0.01	0	0	1;
	4334	0.0	0.0	1.00	511.5885	255.7943	184.1719	0.9	0.85	1000	-1000	1000	0.1	0.01	0	0	1;
	4210	0.0	0.0	1.00	506.3580	253.1790	182.2889	0.9	0.85	1000	-1000	1000	0.1	0.01	0	0	1;
	2629	0.0	0.0	1.00	498.8640	249.4320	179.5910	0.9	0.85	1000	-1000	1000	0.1	0.01	0	0	1;
	2041	0.0	0.0	1.00	486.3915	243.1958	175.1009	0.9	0.85	1000	-1000	1000	0.1	0.01	0	0	1;
	2885	0.0	0.0	1.00	485.6550	242.8275	174.8358	0.9	0.85	1000	-1000	1000	0.1	0.01	0	0	1;
	809	0.0	0.0	1.00	483.9225	241.9613	174.2121	0.9	0.85	1000	-1000	1000	0.1	0.01	0	0	1;
	4819	0.0	0.0	1.00	482.8530	241.4265	173.8271	0.9	0.85	1000	-1000	1000	0.1	0.01	0	0	1;
	4797	0.0	0.0	1.00	481.7130	240.8565	173.4167	0.9	0.85	1000	-1000	1000	0.1	0.01	0	0	1;
	2027	0.0	0.0	1.00	470.9730	235.4865	169.5503	0.9	0.85	1000	-1000	1000	0.1	0.01	0	0	1;
	1101	0.0	0.0	1.00	461.4885	230.7442	166.1359	0.9	0.85	1000	-1000	1000	0.1	0.01	0	0	1;
	671	0.0	0.0	1.00	460.5135	230.2568	165.7849	0.9	0.85	1000	-1000	1000	0.1	0.01	0	0	1;
	2639	0.0	0.0	1.00	449.8875	224.9438	161.9595	0.9	0.85	1000	-1000	1000	0.1	0.01	0	0	1;
	895	0.0	0.0	1.00	447.6495	223.8247	161.1538	0.9	0.85	1000	-1000	1000	0.1	0.01	0	0	1;
	2722	0.0	0.0	1.00	445.4715	222.7357	160.3697	0.9	0.85	1000	-1000	1000	0.1	0.01	0	0	1;
	950	0.0	0.0	1.00	436.9695	218.4847	157.3090	0.9	0.85	1000	-1000	1000	0.1	0.01	0	0	1;
	575	0.0	0.0	1.00	435.9225	217.9613	156.9321	0.9	0.85	1000	-1000	1000	0.1	0.01	0	0	1;
	3945	0.0	0.0	1.00	432.6060	216.3030	155.7382	0.9	0.85	1000	-1000	1000	0.1	0.01	0	0	1;
	2026	0.0	0.0	1.00	415.8945	207.9472	149.7220	0.9	0.85	1000	-1000	1000	0.1	0.01	0	0	1;
	3080	0.0	0.0	1.00	401.4465	200.7232	144.5207	0.9	0.85	1000	-1000	1000	0.1	0.01	0	0	1;
	1172	0.0	0.0	1.00	395.0895	197.5447	142.2322	0.9	0.85	1000	-1000	1000	0.1	0.01	0	0	1;
	1752	0.0	0.0	1.00	394.6260	197.3130	142.0654	0.9	0.85	1000	-1000	1000	0.1	0.01	0	0	1;
	1006	0.0	0.0	1.00	390.1110	195.0555	140.4400	0.9	0.85	1000	-1000	1000	0.1	0.01	0	0	1;
	1253	0.0	0.0	1.00	384.1980	192.0990	138.3113	0.9	0.85	1000	-1000	1000	0.1	0.01	0	0	1;
	856	0.0	0.0	1.00	382.1115	191.0558	137.5601	0.9	0.85	1000	-1000	1000	0.1	0.01	0	0	1;
	3810	0.0	0.0	1.00	375.4755	187.7378	135.1712	0.9	0.85	1000	-1000	1000	0.1	0.01	0	0	1;
	4829	0.0	0.0	1.00	368.5680	184.2840	132.6845	0.9	0.85	1000	-1000	1000	0.1	0.01	0	0	1;
	1753	0.0	0.0	1.00	366.3045	183.1523	131.8696	0.9	0.85	1000	-1000	1000	0.1	0.01	0	0	1;
	4066	0.0	0.0	1.00	361.6125	180.8062	130.1805	0.9	0.85	1000	-1000	1000	0.1	0.01	0	0	1;
	4249	0.0	0.0	1.00	357.4215	178.7108	128.6717	0.9	0.85	1000	-1000	1000	0.1	0.01	0	0	1;
	4811	0.0	0.0	1.00	355.8450	177.9225	128.1042	0.9	0.85	1000	-1000	1000	0.1	0.01	0	0	1;
	4246	0.0	0.0	1.00	353.2725	176.6362	127.1781	0.9	0.85	1000	-1000	1000	0.1	0.01	0	0	1;
	4451	0.0	0.0	1.00	352.7115	176.3558	126.9761	0.9	0.85	1000	-1000	1000	0.1	0.01	0	0	1;
	2868	0.0	0.0	1.00	339.0120	169.5060	122.0443	0.9	0.85	1000	-1000	1000	0.1	0.01	0	0	1;
	3773	0.0	0.0	1.00	338.0475	169.0238	121.6971	0.9	0.85	1000	-1000	1000	0.1	0.01	0	0	1;
	2760	0.0	0.0	1.00	333.1470	166.5735	119.9329	0.9	0.85	1000	-1000	1000	0.1	0.01	0	0	1;
	4303	0.0	0.0	1.00	310.4115	155.2057	111.7481	0.9	0.85	1000	-1000	1000	0.1	0.01	0	0	1;
	408	0.0	0.0	1.00	308.9010	154.4505	111.2044	0.9	0.85	1000	-1000	1000	0.1	0.01	0	0	1;
	2660	0.0	0.0	1.00	308.4450	154.2225	111.0402	0.9	0.85	1000	-1000	1000	0.1	0.01	0	0	1;
	4693	0.0	0.0	1.00	303.7605	151.8802	109.3538	0.9	0.85	1000	-1000	1000	0.1	0.01	0	0	1;
	2958	0.0	0.0	1.00	302.5560	151.2780	108.9202	0.9	0.85	1000	-1000	1000	0.1	0.01	0	0	1;
	2200	0.0	0.0	1.00	299.6130	149.8065	107.8607	0.9	0.85	1000	-1000	1000	0.1	0.01	0	0	1;
	3760	0.0	0.0	1.00	299.6130	149.8065	107.8607	0.9	0.85	1000	-1000	1000	0.1	0.01	0	0	1;
	4715	0.0	0.0	1.00	299.3190	149.6595	107.7548	0.9	0.85	1000	-1000	1000	0.1	0.01	0	0	1;
	2053	0.0	0.0	1.00	298.8090	149.4045	107.5712	0.9	0.85	1000	-1000	1000	0.1	0.01	0	0	1;
	2930	0.0	0.0	1.00	296.9370	148.4685	106.8973	0.9	0.85	1000	-1000	1000	0.1	0.01	0	0	1;
	2012	0.0	0.0	1.00	295.9440	147.9720	106.5398	0.9	0.85	1000	-1000	1000	0.1	0.01	0	0	1;
	860	0.0	0.0	1.00	295.0995	147.5498	106.2358	0.9	0.85	1000	-1000	1000	0.1	0.01	0	0	1;
	2529	0.0	0.0	1.00	294.6615	147.3307	106.0781	0.9	0.85	1000	-1000	1000	0.1	0.01	0	0	1;
	4115	0.0	0.0	1.00	294.6615	147.3307	106.0781	0.9	0.85	1000	-1000	1000	0.1	0.01	0	0	1;
	1340	0.0	0.0	1.00	293.9280	146.9640	105.8141	0.9	0.85	1000	-1000	1000	0.1	0.01	0	0	1;
	1227	0.0	0.0	1.00	292.6110	146.3055	105.3400	0.9	0.85	1000	-1000	1000	0.1	0.01	0	0	1;
	2036	0.0	0.0	1.00	290.9685	145.4843	104.7487	0.9	0.85	1000	-1000	1000	0.1	0.01	0	0	1;
	1155	0.0	0.0	1.00	290.7000	145.3500	104.6520	0.9	0.85	1000	-1000	1000	0.1	0.01	0	0	1;
	1192	0.0	0.0	1.00	283.7550	141.8775	102.1518	0.9	0.85	1000	-1000	1000	0.1	0.01	0	0	1;
	833	0.0	0.0	1.00	282.1320	141.0660	101.5675	0.9	0.85	1000	-1000	1000	0.1	0.01	0	0	1;
	2742	0.0	0.0	1.00	281.8725	140.9363	101.4741	0.9	0.85	1000	-1000	1000	0.1	0.01	0	0	1;
	2431	0.0	0.0	1.00	281.1780	140.5890	101.2241	0.9	0.85	1000	-1000	1000	0.1	0.01	0	0	1;
	2462	0.0	0.0	1.00	280.4610	140.2305	100.9660	0.9	0.85	1000	-1000	1000	0.1	0.01	0	0	1;
	753	0.0	0.0	1.00	280.4010	140.2005	100.9444	0.9	0.85	1000	-1000	1000	0.1	0.01	0	0	1;
	2737	0.0	0.0	1.00	280.3425	140.1713	100.9233	0.9	0.85	1000	-1000	1000	0.1	0.01	0	0	1;
	2845	0.0	0.0	1.00	279.3405	139.6703	100.5626	0.9	0.85	1000	-1000	1000	0.1	0.01	0	0	1;
	474	0.0	0.0	1.00	277.9605	138.9802	100.0658	0.9	0.85	1000	-1000	1000	0.1	0.01	0	0	1;
	857	0.0	0.0	1.00	275.2770	137.6385	99.0997	0.9	0.85	1000	-1000	1000	0.1	0.01	0	0	1;
	81	0.0	0.0	1.00	274.8570	137.4285	98.9485	0.9	0.85	1000	-1000	1000	0.1	0.01	0	0	1;
	4395	0.0	0.0	1.00	272.9250	136.4625	98.2530	0.9	0.85	1000	-1000	1000	0.1	0.01	0	0	1;
	1080	0.0	0.0	1.00	271.2570	135.6285	97.6525	0.9	0.85	1000	-1000	1000	0.1	0.01	0	0	1;
	2977	0.0	0.0	1.00	270.2535	135.1268	97.2913	0.9	0.85	1000	-1000	1000	0.1	0.01	0	0	1;
	4822	0.0	0.0	1.00	266.4675	133.2338	95.9283	0.9	0.85	1000	-1000	1000	0.1	0.01	0	0	1;
	1058	0.0	0.0	1.00	263.1765	131.5882	94.7435	0.9	0.85	1000	-1000	1000	0.1	0.01	0	0	1;
	4645	0.0	0.0	1.00	262.6050	131.3025	94.5378	0.9	0.85	1000	-1000	1000	0.1	0.01	0	0	1;
	1178	0.0	0.0	1.00	261.1815	130.5908	94.0253	0.9	0.85	1000	-1000	1000	0.1	0.01	0	0	1;
	813	0.0	0.0	1.00	255.9345	127.9672	92.1364	0.9	0.85	1000	-1000	1000	0.1	0.01	0	0	1;
	2641	0.0	0.0	1.00	254.1150	127.0575	91.4814	0.9	0.85	1000	-1000	1000	0.1	0.01	0	0	1;
	1211	0.0	0.0	1.00	252.0675	126.0337	90.7443	0.9	0.85	1000	-1000	1000	0.1	0.01	0	0	1;
	2959	0.0	0.0	1.00	250.7700	125.3850	90.2772	0.9	0.85	1000	-1000	1000	0.1	0.01	0	0	1;
	4042	0.0	0.0	1.00	249.3735	124.6867	89.7745	0.9	0.85	1000	-1000	1000	0.1	0.01	0	0	1;
	881	0.0	0.0	1.00	248.3130	124.1565	89.3927	0.9	0.85	1000	-1000	1000	0.1	0.01	0	0	1;
	2761	0.0	0.0	1.00	247.1565	123.5782	88.9763	0.9	0.85	1000	-1000	1000	0.1	0.01	0	0	1;
	2005	0.0	0.0	1.00	245.6760	122.8380	88.4434	0.9	0.85	1000	-1000	1000	0.1	0.01	0	0	1;
	2981	0.0	0.0	1.00	242.3400	121.1700	87.2424	0.9	0.85	1000	-1000	1000	0.1	0.01	0	0	1;
	2841	0.0	0.0	1.00	241.1880	120.5940	86.8277	0.9	0.85	1000	-1000	1000	0.1	0.01	0	0	1;
	1119	0.0	0.0	1.00	240.9615	120.4808	86.7461	0.9	0.85	1000	-1000	1000	0.1	0.01	0	0	1;
	4367	0.0	0.0	1.00	239.7885	119.8942	86.3239	0.9	0.85	1000	-1000	1000	0.1	0.01	0	0	1;
	4468	0.0	0.0	1.00	237.8910	118.9455	85.6408	0.9	0.85	1000	-1000	1000	0.1	0.01	0	0	1;
	1282	0.0	0.0	1.00	237.6570	118.8285	85.5565	0.9	0.85	1000	-1000	1000	0.1	0.01	0	0	1;
	2819	0.0	0.0	1.00	237.5220	118.7610	85.5079	0.9	0.85	1000	-1000	1000	0.1	0.01	0	0	1;
	2469	0.0	0.0	1.00	236.8860	118.4430	85.2790	0.9	0.85	1000	-1000	1000	0.1	0.01	0	0	1;
	4049	0.0	0.0	1.00	236.8860	118.4430	85.2790	0.9	0.85	1000	-1000	1000	0.1	0.01	0	0	1;
	889	0.0	0.0	1.00	235.4385	117.7193	84.7579	0.9	0.85	1000	-1000	1000	0.1	0.01	0	0	1;
	2953	0.0	0.0	1.00	233.9070	116.9535	84.2065	0.9	0.85	1000	-1000	1000	0.1	0.01	0	0	1;
	2790	0.0	0.0	1.00	233.7750	116.8875	84.1590	0.9	0.85	1000	-1000	1000	0.1	0.01	0	0	1;
	2423	0.0	0.0	1.00	233.0760	116.5380	83.9074	0.9	0.85	1000	-1000	1000	0.1	0.01	0	0	1;
	3999	0.0	0.0	1.00	233.0760	116.5380	83.9074	0.9	0.85	1000	-1000	1000	0.1	0.01	0	0	1;
	874	0.0	0.0	1.00	232.1400	116.0700	83.5704	0.9	0.85	1000	-1000	1000	0.1	0.01	0	0	1;
	2533	0.0	0.0	1.00	231.9720	115.9860	83.5099	0.9	0.85	1000	-1000	1000	0.1	0.01	0	0	1;
	4119	0.0	0.0	1.00	231.9720	115.9860	83.5099	0.9	0.85	1000	-1000	1000	0.1	0.01	0	0	1;
	1085	0.0	0.0	1.00	230.6040	115.3020	83.0174	0.9	0.85	1000	-1000	1000	0.1	0.01	0	0	1;
	4033	0.0	0.0	1.00	228.0210	114.0105	82.0876	0.9	0.85	1000	-1000	1000	0.1	0.01	0	0	1;
	1879	0.0	0.0	1.00	227.6550	113.8275	81.9558	0.9	0.85	1000	-1000	1000	0.1	0.01	0	0	1;
	2557	0.0	0.0	1.00	227.3925	113.6962	81.8613	0.9	0.85	1000	-1000	1000	0.1	0.01	0	0	1;
	4147	0.0	0.0	1.00	227.3925	113.6962	81.8613	0.9	0.85	1000	-1000	1000	0.1	0.01	0	0	1;
	2809	0.0	0.0	1.00	225.4785	112.7392	81.1723	0.9	0.85	1000	-1000	1000	0.1	0.01	0	0	1;
	1805	0.0	0.0	1.00	224.4870	112.2435	80.8153	0.9	0.85	1000	-1000	1000	0.1	0.01	0	0	1;
	1027	0.0	0.0	1.00	223.7640	111.8820	80.5550	0.9	0.85	1000	-1000	1000	0.1	0.01	0	0	1;
	4837	0.0	0.0	1.00	220.9275	110.4638	79.5339	0.9	0.85	1000	-1000	1000	0.1	0.01	0	0	1;
	1150	0.0	0.0	1.00	220.8225	110.4112	79.4961	0.9	0.85	1000	-1000	1000	0.1	0.01	0	0	1;
	2848	0.0	0.0	1.00	218.5200	109.2600	78.6672	0.9	0.85	1000	-1000	1000	0.1	0.01	0	0	1;
	2933	0.0	0.0	1.00	218.3865	109.1933	78.6191	0.9	0.85	1000	-1000	1000	0.1	0.01	0	0	1;
	3989	0.0	0.0	1.00	218.0055	109.0027	78.4820	0.9	0.85	1000	-1000	1000	0.1	0.01	0	0	1;
	4358	0.0	0.0	1.00	217.7175	108.8588	78.3783	0.9	0.85	1000	-1000	1000	0.1	0.01	0	0	1;
	4752	0.0	0.0	1.00	216.8070	108.4035	78.0505	0.9	0.85	1000	-1000	1000	0.1	0.01	0	0	1;
	878	0.0	0.0	1.00	216.4290	108.2145	77.9144	0.9	0.85	1000	-1000	1000	0.1	0.01	0	0	1;
	4365	0.0	0.0	1.00	215.3085	107.6542	77.5111	0.9	0.85	1000	-1000	1000	0.1	0.01	0	0	1;
	1250	0.0	0.0	1.00	215.2290	107.6145	77.4824	0.9	0.85	1000	-1000	1000	0.1	0.01	0	0	1;
	2824	0.0	0.0	1.00	215.0415	107.5207	77.4149	0.9	0.85	1000	-1000	1000	0.1	0.01	0	0	1;
	3935	0.0	0.0	1.00	214.8960	107.4480	77.3626	0.9	0.85	1000	-1000	1000	0.1	0.01	0	0	1;
	1267	0.0	0.0	1.00	212.8605	106.4303	76.6298	0.9	0.85	1000	-1000	1000	0.1	0.01	0	0	1;
	4206	0.0	0.0	1.00	209.1540	104.5770	75.2954	0.9	0.85	1000	-1000	1000	0.1	0.01	0	0	1;
	2735	0.0	0.0	1.00	209.0190	104.5095	75.2468	0.9	0.85	1000	-1000	1000	0.1	0.01	0	0	1;
	2900	0.0	0.0	1.00	208.7520	104.3760	75.1507	0.9	0.85	1000	-1000	1000	0.1	0.01	0	0	1;
	2733	0.0	0.0	1.00	208.4850	104.2425	75.0546	0.9	0.85	1000	-1000	1000	0.1	0.01	0	0	1;
	2663	0.0	0.0	1.00	208.2015	104.1007	74.9525	0.9	0.85	1000	-1000	1000	0.1	0.01	0	0	1;
	2817	0.0	0.0	1.00	208.0830	104.0415	74.9099	0.9	0.85	1000	-1000	1000	0.1	0.01	0	0	1;
	2472	0.0	0.0	1.00	207.2805	103.6403	74.6210	0.9	0.85	1000	-1000	1000	0.1	0.01	0	0	1;
	4052	0.0	0.0	1.00	207.2805	103.6403	74.6210	0.9	0.85	1000	-1000	1000	0.1	0.01	0	0	1;
	2846	0.0	0.0	1.00	207.0120	103.5060	74.5243	0.9	0.85	1000	-1000	1000	0.1	0.01	0	0	1;
	1187	0.0	0.0	1.00	206.1030	103.0515	74.1971	0.9	0.85	1000	-1000	1000	0.1	0.01	0	0	1;
	4724	0.0	0.0	1.00	205.2735	102.6367	73.8985	0.9	0.85	1000	-1000	1000	0.1	0.01	0	0	1;
	74	0.0	0.0	1.00	204.7110	102.3555	73.6960	0.9	0.85	1000	-1000	1000	0.1	0.01	0	0	1;
	2802	0.0	0.0	1.00	204.4695	102.2347	73.6090	0.9	0.85	1000	-1000	1000	0.1	0.01	0	0	1;
	2839	0.0	0.0	1.00	204.2025	102.1012	73.5129	0.9	0.85	1000	-1000	1000	0.1	0.01	0	0	1;
	1351	0.0	0.0	1.00	203.8800	101.9400	73.3968	0.9	0.85	1000	-1000	1000	0.1	0.01	0	0	1;
	4637	0.0	0.0	1.00	203.4930	101.7465	73.2575	0.9	0.85	1000	-1000	1000	0.1	0.01	0	0	1;
	54	0.0	0.0	1.00	202.3950	101.1975	72.8622	0.9	0.85	1000	-1000	1000	0.1	0.01	0	0	1;
	1334	0.0	0.0	1.00	200.6100	100.3050	72.2196	0.9	0.85	1000	-1000	1000	0.1	0.01	0	0	1;
	4032	0.0	0.0	1.00	199.2375	99.6187	71.7255	0.9	0.85	1000	-1000	1000	0.1	0.01	0	0	1;
	1771	0.0	0.0	1.00	199.0575	99.5288	71.6607	0.9	0.85	1000	-1000	1000	0.1	0.01	0	0	1;
	4623	0.0	0.0	1.00	197.4330	98.7165	71.0759	0.9	0.85	1000	-1000	1000	0.1	0.01	0	0	1;
	2800	0.0	0.0	1.00	196.7085	98.3543	70.8151	0.9	0.85	1000	-1000	1000	0.1	0.01	0	0	1;
	2719	0.0	0.0	1.00	196.3065	98.1533	70.6703	0.9	0.85	1000	-1000	1000	0.1	0.01	0	0	1;
	2360	0.0	0.0	1.00	196.2135	98.1068	70.6369	0.9	0.85	1000	-1000	1000	0.1	0.01	0	0	1;
	2009	0.0	0.0	1.00	192.3900	96.1950	69.2604	0.9	0.85	1000	-1000	1000	0.1	0.01	0	0	1;
	4805	0.0	0.0	1.00	189.9765	94.9882	68.3915	0.9	0.85	1000	-1000	1000	0.1	0.01	0	0	1;
	3169	0.0	0.0	1.00	187.9575	93.9788	67.6647	0.9	0.85	1000	-1000	1000	0.1	0.01	0	0	1;
	2672	0.0	0.0	1.00	187.8765	93.9383	67.6355	0.9	0.85	1000	-1000	1000	0.1	0.01	0	0	1;
	2712	0.0	0.0	1.00	186.8070	93.4035	67.2505	0.9	0.85	1000	-1000	1000	0.1	0.01	0	0	1;
	3930	0.0	0.0	1.00	186.6645	93.3323	67.1992	0.9	0.85	1000	-1000	1000	0.1	0.01	0	0	1;
	2082	0.0	0.0	1.00	185.0250	92.5125	66.6090	0.9	0.85	1000	-1000	1000	0.1	0.01	0	0	1;
	1809	0.0	0.0	1.00	184.9935	92.4967	66.5977	0.9	0.85	1000	-1000	1000	0.1	0.01	0	0	1;
	4833	0.0	0.0	1.00	184.5315	92.2657	66.4313	0.9	0.85	1000	-1000	1000	0.1	0.01	0	0	1;
	2114	0.0	0.0	1.00	183.9630	91.9815	66.2267	0.9	0.85	1000	-1000	1000	0.1	0.01	0	0	1;
	3671	0.0	0.0	1.00	183.9630	91.9815	66.2267	0.9	0.85	1000	-1000	1000	0.1	0.01	0	0	1;
	427	0.0	0.0	1.00	183.2910	91.6455	65.9848	0.9	0.85	1000	-1000	1000	0.1	0.01	0	0	1;
	4266	0.0	0.0	1.00	181.5870	90.7935	65.3713	0.9	0.85	1000	-1000	1000	0.1	0.01	0	0	1;
	2635	0.0	0.0	1.00	179.4465	89.7233	64.6007	0.9	0.85	1000	-1000	1000	0.1	0.01	0	0	1;
	4579	0.0	0.0	1.00	178.8735	89.4367	64.3945	0.9	0.85	1000	-1000	1000	0.1	0.01	0	0	1;
	2038	0.0	0.0	1.00	178.7475	89.3738	64.3491	0.9	0.85	1000	-1000	1000	0.1	0.01	0	0	1;
	43	0.0	0.0	1.00	178.3455	89.1728	64.2044	0.9	0.85	1000	-1000	1000	0.1	0.01	0	0	1;
	2710	0.0	0.0	1.00	178.2885	89.1442	64.1839	0.9	0.85	1000	-1000	1000	0.1	0.01	0	0	1;
	822	0.0	0.0	1.00	177.9150	88.9575	64.0494	0.9	0.85	1000	-1000	1000	0.1	0.01	0	0	1;
	2125	0.0	0.0	1.00	177.1155	88.5577	63.7616	0.9	0.85	1000	-1000	1000	0.1	0.01	0	0	1;
	3682	0.0	0.0	1.00	177.1155	88.5577	63.7616	0.9	0.85	1000	-1000	1000	0.1	0.01	0	0	1;
	1207	0.0	0.0	1.00	176.3550	88.1775	63.4878	0.9	0.85	1000	-1000	1000	0.1	0.01	0	0	1;
	4727	0.0	0.0	1.00	176.2350	88.1175	63.4446	0.9	0.85	1000	-1000	1000	0.1	0.01	0	0	1;
	1421	0.0	0.0	1.00	175.2045	87.6022	63.0736	0.9	0.85	1000	-1000	1000	0.1	0.01	0	0	1;
	1627	0.0	0.0	1.00	175.2045	87.6022	63.0736	0.9	0.85	1000	-1000	1000	0.1	0.01	0	0	1;
	4678	0.0	0.0	1.00	173.2905	86.6453	62.3846	0.9	0.85	1000	-1000	1000	0.1	0.01	0	0	1;
...
];

%% branch data
%	fbus	tbus	r	x	b	rateA	rateB	rateC	ratio	angle	status	angmin	angmax
mpc.branch = [
	3	 17	 0.0062	 0.0245	 0.0	 260.0	 312.0	 390.0	 0.0	 0.0	 1	 -30.0	 30.0;
	3	 25	 0.0044	 0.0165	 0.0	 260.0	 312.0	 390.0	 0.0	 0.0	 1	 -30.0	 30.0;
	6	 17	 0.0163	 0.0655	 0.0	 260.0	 312.0	 390.0	 0.0	 0.0	 1	 -30.0	 30.0;
	9	 15	 0.0257	 0.0526	 0.0	 62.0	 81.0	 81.0	 0.0	 0.0	 1	 -30.0	 30.0;
	9	 18	 0.0063	 0.0149	 0.0	 74.0	 88.0	 88.0	 0.0	 0.0	 1	 -30.0	 30.0;
...